<?xml version='1.0' encoding='UTF-8'?>
<!-- generated on 2022-09-25 13:25:40 by Eclipse SUMO netconvert Version 1.13.0
<configuration xmlns:xsi="http://www.w3.org/2001/XMLSchema-instance" xsi:noNamespaceSchemaLocation="http://sumo.dlr.de/xsd/netconvertConfiguration.xsd">

    <input>
        <opendrive-files value="map_new_new\15\18\18.xodr"/>
    </input>

    <output>
        <output-file value="C:\Users\LinGe\AppData\Local\Temp\tmpxbdcdlgm\18.net.xml"/>
    </output>

    <processing>
        <geometry.max-grade.fix value="false"/>
    </processing>

    <tls_building>
        <tls.left-green.time value="0"/>
    </tls_building>

    <junctions>
        <rectangular-lane-cut value="true"/>
    </junctions>

    <report>
        <aggregate-warnings value="5"/>
    </report>

</configuration>
-->
<net xmlns:xsi="http://www.w3.org/2001/XMLSchema-instance" version="1.9" junctionCornerDetail="5" rectangularLaneCut="true" limitTurnSpeed="5.50" xsi:noNamespaceSchemaLocation="http://sumo.dlr.de/xsd/net_file.xsd">
  <location netOffset="201.55,201.27" convBoundary="0.00,0.00,1102.63,1052.95" origBoundary="-201.55,-201.27,901.09,851.68" projParameter="!"/>
  <type id="bidirectional" priority="1" speed="1.39" disallow="pedestrian tram rail_urban rail rail_electric rail_fast ship" width="3.65"/>
  <type id="border" priority="0" speed="1.39" disallow="all" discard="1" width="0.10"/>
  <type id="driving" priority="1" speed="13.89" disallow="pedestrian tram rail_urban rail rail_electric rail_fast ship" width="3.65"/>
  <type id="entry" priority="1" speed="22.22" disallow="pedestrian tram rail_urban rail rail_electric rail_fast ship" width="3.65"/>
  <type id="exit" priority="1" speed="22.22" disallow="pedestrian tram rail_urban rail rail_electric rail_fast ship" width="3.65"/>
  <type id="median" priority="0" speed="1.39" disallow="all" discard="1" width="0.10"/>
  <type id="mwyEntry" priority="1" speed="22.22" allow="private emergency authority army vip passenger hov taxi bus coach delivery truck trailer motorcycle evehicle custom1 custom2" width="3.65"/>
  <type id="mwyExit" priority="1" speed="22.22" allow="private emergency authority army vip passenger hov taxi bus coach delivery truck trailer motorcycle evehicle custom1 custom2" width="3.65"/>
  <type id="none" priority="0" speed="1.39" disallow="all" discard="1" width="1.00"/>
  <type id="offRamp" priority="1" speed="22.22" allow="private emergency authority army vip passenger hov taxi bus coach delivery truck trailer motorcycle evehicle custom1 custom2" width="3.65"/>
  <type id="onRamp" priority="1" speed="22.22" allow="private emergency authority army vip passenger hov taxi bus coach delivery truck trailer motorcycle evehicle custom1 custom2" width="3.65"/>
  <type id="parking" priority="1" speed="1.39" disallow="pedestrian tram rail_urban rail rail_electric rail_fast ship" width="2.50"/>
  <type id="rail" priority="3" speed="33.33" allow="rail_urban rail rail_electric rail_fast" width="3.65"/>
  <type id="restricted" priority="0" speed="13.89" disallow="all" width="3.65"/>
  <type id="roadWorks" priority="0" speed="1.39" allow="authority" width="3.65"/>
  <type id="shoulder" priority="0" speed="1.39" disallow="all" discard="1" width="1.00"/>
  <type id="special1" priority="1" speed="22.22" allow="custom1" discard="1" width="3.65"/>
  <type id="special2" priority="1" speed="22.22" allow="custom2" discard="1" width="3.65"/>
  <type id="special3" priority="1" speed="22.22" allow="custom1 custom2" discard="1" width="3.65"/>
  <type id="stop" priority="1" speed="13.89" disallow="pedestrian tram rail_urban rail rail_electric rail_fast ship" width="3.65"/>
  <type id="tram" priority="2" speed="13.89" allow="tram" width="3.65"/>
  <edge id=":0_0" function="internal">
    <lane id=":0_0_0" index="0" disallow="pedestrian tram rail_urban rail rail_electric rail_fast ship" speed="15.28" length="19.96" width="3.75" shape="945.74,584.26 940.01,587.37,0.00 935.95,590.60,0.01 933.04,593.84,0.01 930.75,596.99,0.01"/>
  </edge>
  <edge id=":0_1" function="internal">
    <lane id=":0_1_0" index="0" disallow="pedestrian tram rail_urban rail rail_electric rail_fast ship" speed="22.22" length="20.36" width="3.75" shape="945.74,584.26 927.20,592.64"/>
    <lane id=":0_1_1" index="1" disallow="pedestrian tram rail_urban rail rail_electric rail_fast ship" speed="22.22" length="20.36" width="3.75" shape="944.20,580.84 925.65,589.22"/>
    <lane id=":0_1_2" index="2" disallow="pedestrian tram rail_urban rail rail_electric rail_fast ship" speed="22.22" length="20.36" width="3.75" shape="942.66,577.42 924.10,585.81"/>
  </edge>
  <edge id=":1_0" function="internal">
    <lane id=":1_0_0" index="0" disallow="pedestrian tram rail_urban rail rail_electric rail_fast ship" speed="16.67" length="59.44" width="3.75" shape="405.87,894.25 416.66,883.96 429.74,870.78 441.32,858.77 447.64,851.97"/>
  </edge>
  <edge id=":1_1" function="internal">
    <lane id=":1_1_0" index="0" disallow="pedestrian tram rail_urban rail rail_electric rail_fast ship" speed="22.22" length="59.73" width="3.75" shape="405.87,894.25 450.92,854.89"/>
    <lane id=":1_1_1" index="1" disallow="pedestrian tram rail_urban rail rail_electric rail_fast ship" speed="22.22" length="59.73" width="3.75" shape="408.38,897.04 453.35,857.74"/>
    <lane id=":1_1_2" index="2" disallow="pedestrian tram rail_urban rail rail_electric rail_fast ship" speed="22.22" length="59.73" width="3.75" shape="410.88,899.83 455.78,860.60"/>
  </edge>
  <edge id=":11.10_0" function="internal">
    <lane id=":11.10_0_0" index="0" disallow="pedestrian tram rail_urban rail rail_electric rail_fast ship" speed="22.22" length="0.30" width="3.75" shape="274.78,260.17,20.00 274.59,259.94,20.00"/>
    <lane id=":11.10_0_1" index="1" disallow="pedestrian tram rail_urban rail rail_electric rail_fast ship" speed="22.22" length="0.30" width="3.75" shape="277.68,257.79,20.00 277.49,257.56,20.00"/>
    <lane id=":11.10_0_2" index="2" disallow="pedestrian tram rail_urban rail rail_electric rail_fast ship" speed="22.22" length="0.30" width="3.75" shape="280.59,255.42,20.00 280.39,255.18,20.00"/>
  </edge>
  <edge id=":13.12_0" function="internal">
    <lane id=":13.12_0_0" index="0" disallow="pedestrian tram rail_urban rail rail_electric rail_fast ship" speed="11.11" length="0.29" width="3.75" shape="519.33,692.81,11.84 519.36,692.52,11.86"/>
  </edge>
  <edge id=":16.15_0" function="internal">
    <lane id=":16.15_0_0" index="0" disallow="pedestrian tram rail_urban rail rail_electric rail_fast ship" speed="19.44" length="0.30" width="3.75" shape="568.99,648.13,14.74 569.29,648.12,14.71"/>
  </edge>
  <edge id=":19.18_0" function="internal">
    <lane id=":19.18_0_0" index="0" disallow="pedestrian tram rail_urban rail rail_electric rail_fast ship" speed="8.33" length="0.28" width="3.75" shape="747.76,982.37,6.18 747.49,982.44,6.18"/>
  </edge>
  <edge id=":2_0" function="internal">
    <lane id=":2_0_0" index="0" disallow="pedestrian tram rail_urban rail rail_electric rail_fast ship" speed="20.83" length="8.08" width="3.75" shape="459.32,541.91,20.00 463.21,548.98,20.00"/>
  </edge>
  <edge id=":2.1_0" function="internal">
    <lane id=":2.1_0_0" index="0" disallow="pedestrian tram rail_urban rail rail_electric rail_fast ship" speed="22.22" length="0.30" width="3.75" shape="629.24,749.12 628.99,749.28"/>
    <lane id=":2.1_0_1" index="1" disallow="pedestrian tram rail_urban rail rail_electric rail_fast ship" speed="22.22" length="0.30" width="3.75" shape="627.20,745.97 626.95,746.13"/>
    <lane id=":2.1_0_2" index="2" disallow="pedestrian tram rail_urban rail rail_electric rail_fast ship" speed="22.22" length="0.30" width="3.75" shape="625.17,742.82 624.91,742.98"/>
  </edge>
  <edge id=":21.20_0" function="internal">
    <lane id=":21.20_0_0" index="0" disallow="pedestrian tram rail_urban rail rail_electric rail_fast ship" speed="9.72" length="0.29" width="3.75" shape="1054.07,973.80,7.09 1053.91,974.04,7.08"/>
  </edge>
  <edge id=":3_0" function="internal">
    <lane id=":3_0_0" index="0" disallow="pedestrian tram rail_urban rail rail_electric rail_fast ship" speed="16.67" length="8.03" width="3.75" shape="443.83,560.55,19.99 439.85,553.57,20.00"/>
  </edge>
  <edge id=":4_0" function="internal">
    <lane id=":4_0_0" index="0" disallow="pedestrian tram rail_urban rail rail_electric rail_fast ship" speed="20.83" length="155.78" width="3.75" shape="872.09,588.56,0.00 1015.72,528.25"/>
  </edge>
  <edge id=":4_1" function="internal">
    <lane id=":4_1_0" index="0" disallow="pedestrian tram rail_urban rail rail_electric rail_fast ship" speed="22.22" length="155.56" width="3.75" shape="873.82,592.18 1015.72,528.25"/>
    <lane id=":4_1_1" index="1" disallow="pedestrian tram rail_urban rail rail_electric rail_fast ship" speed="22.22" length="155.56" width="3.75" shape="875.41,595.58 1017.24,531.67"/>
    <lane id=":4_1_2" index="2" disallow="pedestrian tram rail_urban rail rail_electric rail_fast ship" speed="22.22" length="155.56" width="3.75" shape="877.00,598.98 1018.76,535.10"/>
  </edge>
  <edge id=":5_0" function="internal">
    <lane id=":5_0_0" index="0" disallow="pedestrian tram rail_urban rail rail_electric rail_fast ship" speed="19.44" length="3.03" width="3.75" shape="571.62,648.09,14.54 574.64,648.10,14.31"/>
  </edge>
  <edge id=":5_1" function="internal">
    <lane id=":5_1_0" index="0" disallow="pedestrian tram rail_urban rail rail_electric rail_fast ship" speed="14.58" length="3.00" width="3.75" shape="571.62,648.09,14.54 574.62,648.09,14.42"/>
  </edge>
  <edge id=":6_0" function="internal">
    <lane id=":6_0_0" index="0" disallow="pedestrian tram rail_urban rail rail_electric rail_fast ship" speed="11.11" length="3.09" width="3.75" shape="519.66,688.01,12.09 519.69,684.92,12.25"/>
  </edge>
  <edge id=":6_1" function="internal">
    <lane id=":6_1_0" index="0" disallow="pedestrian tram rail_urban rail rail_electric rail_fast ship" speed="9.72" length="3.03" width="3.75" shape="519.68,687.94,12.17 519.69,684.92,12.25"/>
  </edge>
  <edge id=":6.5_0" function="internal">
    <lane id=":6.5_0_0" index="0" disallow="pedestrian tram rail_urban rail rail_electric rail_fast ship" speed="22.22" length="0.30" width="3.75" shape="616.63,730.18 616.88,730.01"/>
    <lane id=":6.5_0_1" index="1" disallow="pedestrian tram rail_urban rail rail_electric rail_fast ship" speed="22.22" length="0.30" width="3.75" shape="618.67,733.33 618.92,733.16"/>
    <lane id=":6.5_0_2" index="2" disallow="pedestrian tram rail_urban rail rail_electric rail_fast ship" speed="22.22" length="0.30" width="3.75" shape="620.71,736.47 620.95,736.31"/>
  </edge>
  <edge id=":7_0" function="internal">
    <lane id=":7_0_0" index="0" disallow="pedestrian tram rail_urban rail rail_electric rail_fast ship" speed="15.97" length="20.41" width="3.75" shape="405.89,934.20,0.01 401.93,934.61,0.01 397.53,935.58,0.00 392.68,937.74,0.00 387.39,941.70"/>
  </edge>
  <edge id=":7_1" function="internal">
    <lane id=":7_1_0" index="0" disallow="pedestrian tram rail_urban rail rail_electric rail_fast ship" speed="22.22" length="18.64" width="3.75" shape="401.12,929.13 387.39,941.70"/>
    <lane id=":7_1_1" index="1" disallow="pedestrian tram rail_urban rail rail_electric rail_fast ship" speed="22.22" length="18.64" width="3.75" shape="398.60,926.35 384.85,938.95"/>
    <lane id=":7_1_2" index="2" disallow="pedestrian tram rail_urban rail rail_electric rail_fast ship" speed="22.22" length="18.64" width="3.75" shape="396.07,923.58 382.31,936.19"/>
  </edge>
  <edge id=":9.8_0" function="internal">
    <lane id=":9.8_0_0" index="0" disallow="pedestrian tram rail_urban rail rail_electric rail_fast ship" speed="22.22" length="0.30" width="3.75" shape="292.19,245.53,20.00 292.39,245.77,20.00"/>
    <lane id=":9.8_0_1" index="1" disallow="pedestrian tram rail_urban rail rail_electric rail_fast ship" speed="22.22" length="0.30" width="3.75" shape="289.29,247.91,20.00 289.48,248.14,20.00"/>
    <lane id=":9.8_0_2" index="2" disallow="pedestrian tram rail_urban rail rail_electric rail_fast ship" speed="22.22" length="0.30" width="3.75" shape="286.39,250.28,20.00 286.58,250.51,20.00"/>
  </edge>
  <edge id="-0" from="0.begin" to="0" priority="1" type="driving" shape="1102.63,502.95 1101.41,503.55 1100.17,504.16 1098.92,504.78 1097.65,505.40 1096.37,506.03 1095.06,506.66 1093.75,507.30 1092.42,507.94 1091.07,508.59 1089.71,509.24 1088.33,509.90 1086.93,510.56 1085.53,511.22 1084.10,511.89 1082.67,512.57 1081.22,513.25 1079.75,513.93 1078.27,514.62 1076.77,515.32 1075.26,516.02 1073.74,516.72 1072.20,517.43 1070.65,518.15 1069.09,518.87 1067.51,519.59 1065.92,520.32 1064.31,521.05 1062.69,521.79 1061.06,522.53 1059.41,523.28 1057.76,524.03 1056.08,524.79 1054.40,525.55 1052.70,526.31 1050.99,527.09 1049.27,527.86 1047.53,528.64 1045.79,529.42 1044.03,530.21 1042.26,531.01 1040.47,531.81 1038.68,532.61 1036.87,533.42 1035.05,534.23 1033.22,535.04 1031.38,535.87 1029.52,536.69 1027.66,537.52 1025.78,538.36 1023.89,539.20 1022.00,540.04 1020.09,540.89 1018.17,541.74 1016.24,542.60 1014.29,543.46 1012.34,544.32 1010.38,545.20 1008.41,546.07 1006.42,546.95 1004.43,547.83 1002.43,548.72 1000.41,549.61 998.39,550.51 996.36,551.41 994.32,552.32 992.27,553.23 990.21,554.14 988.14,555.06 986.06,555.98 983.97,556.91 981.87,557.84 979.76,558.78 977.65,559.72 975.53,560.66 973.39,561.61 971.25,562.57 969.10,563.52 966.95,564.49 964.78,565.45 962.61,566.42 960.43,567.40 958.24,568.37 956.04,569.36 953.84,570.34 951.62,571.34 949.40,572.33 947.18,573.33 944.94,574.33 942.70,575.34 940.45,576.35 938.20,577.37">
    <lane id="-0_0" index="0" disallow="pedestrian tram rail_urban rail rail_electric rail_fast ship" speed="22.22" length="176.67" width="3.75" shape="1106.81,511.34 1105.58,511.95 1104.32,512.57 1103.05,513.20 1101.77,513.83 1100.47,514.46 1099.15,515.10 1097.82,515.74 1096.48,516.39 1095.12,517.04 1093.74,517.70 1092.35,518.36 1090.95,519.03 1089.53,519.70 1088.10,520.37 1086.65,521.06 1085.19,521.74 1083.71,522.43 1082.22,523.12 1080.72,523.82 1079.20,524.53 1077.67,525.23 1076.13,525.95 1074.57,526.67 1073.00,527.39 1071.41,528.11 1069.81,528.85 1068.20,529.58 1066.58,530.32 1064.94,531.07 1063.29,531.82 1061.62,532.57 1059.95,533.33 1058.26,534.09 1056.56,534.86 1054.84,535.63 1053.12,536.41 1051.38,537.19 1049.63,537.98 1047.86,538.77 1046.09,539.56 1044.30,540.36 1042.50,541.17 1040.69,541.98 1038.87,542.79 1037.04,543.61 1035.19,544.43 1033.34,545.26 1031.47,546.09 1029.59,546.92 1027.70,547.76 1025.80,548.61 1023.89,549.46 1021.97,550.31 1020.04,551.17 1018.10,552.03 1016.14,552.89 1014.18,553.77 1012.21,554.64 1010.22,555.52 1008.23,556.40 1006.23,557.29 1004.22,558.18 1002.19,559.08 1000.16,559.98 998.12,560.89 996.07,561.80 994.01,562.71 991.94,563.63 989.86,564.55 987.77,565.48 985.68,566.41 983.57,567.35 981.46,568.29 979.34,569.23 977.21,570.18 975.07,571.13 972.92,572.09 970.76,573.05 968.60,574.01 966.43,574.98 964.25,575.96 962.06,576.93 959.87,577.91 957.67,578.90 955.46,579.89 953.24,580.88 951.02,581.88 948.79,582.88 946.55,583.89 945.74,584.26" type="driving"/>
    <lane id="-0_1" index="1" disallow="pedestrian tram rail_urban rail rail_electric rail_fast ship" speed="22.22" length="176.67" width="3.75" shape="1105.14,507.98 1103.91,508.59 1102.66,509.21 1101.40,509.83 1100.12,510.46 1098.83,511.09 1097.52,511.72 1096.19,512.36 1094.85,513.01 1093.50,513.66 1092.13,514.32 1090.74,514.97 1089.34,515.64 1087.93,516.31 1086.50,516.98 1085.06,517.66 1083.60,518.34 1082.13,519.03 1080.64,519.72 1079.14,520.42 1077.63,521.12 1076.10,521.83 1074.56,522.54 1073.00,523.26 1071.43,523.98 1069.85,524.70 1068.25,525.43 1066.65,526.17 1065.02,526.91 1063.39,527.65 1061.74,528.40 1060.08,529.15 1058.40,529.91 1056.71,530.68 1055.01,531.44 1053.30,532.21 1051.58,532.99 1049.84,533.77 1048.09,534.56 1046.33,535.35 1044.56,536.14 1042.77,536.94 1040.97,537.74 1039.16,538.55 1037.34,539.36 1035.51,540.18 1033.67,541.00 1031.81,541.83 1029.95,542.66 1028.07,543.50 1026.18,544.34 1024.28,545.18 1022.37,546.03 1020.45,546.88 1018.52,547.74 1016.58,548.60 1014.62,549.47 1012.66,550.34 1010.69,551.21 1008.70,552.09 1006.71,552.98 1004.71,553.86 1002.70,554.76 1000.67,555.65 998.64,556.55 996.60,557.46 994.55,558.37 992.49,559.28 990.42,560.20 988.34,561.13 986.25,562.05 984.15,562.98 982.05,563.92 979.93,564.86 977.81,565.80 975.68,566.75 973.54,567.71 971.39,568.66 969.24,569.62 967.07,570.59 964.90,571.56 962.72,572.53 960.53,573.51 958.34,574.49 956.13,575.48 953.92,576.47 951.71,577.46 949.48,578.46 947.25,579.46 945.01,580.47 944.20,580.84" type="driving"/>
    <lane id="-0_2" index="2" disallow="pedestrian tram rail_urban rail rail_electric rail_fast ship" speed="22.22" length="176.67" width="3.75" shape="1103.47,504.62 1102.25,505.23 1101.00,505.85 1099.75,506.46 1098.47,507.09 1097.19,507.72 1095.88,508.35 1094.56,508.99 1093.23,509.63 1091.88,510.28 1090.51,510.93 1089.13,511.59 1087.74,512.25 1086.33,512.92 1084.90,513.59 1083.46,514.27 1082.01,514.95 1080.54,515.63 1079.06,516.32 1077.56,517.02 1076.05,517.72 1074.53,518.43 1072.99,519.14 1071.44,519.85 1069.87,520.57 1068.29,521.29 1066.70,522.02 1065.09,522.76 1063.47,523.50 1061.84,524.24 1060.19,524.99 1058.53,525.74 1056.86,526.50 1055.17,527.26 1053.47,528.02 1051.76,528.79 1050.04,529.57 1048.30,530.35 1046.56,531.14 1044.79,531.92 1043.02,532.72 1041.24,533.52 1039.44,534.32 1037.63,535.13 1035.81,535.94 1033.98,536.76 1032.14,537.58 1030.29,538.40 1028.42,539.23 1026.54,540.07 1024.66,540.91 1022.76,541.75 1020.85,542.60 1018.93,543.45 1017.00,544.31 1015.05,545.17 1013.10,546.04 1011.14,546.91 1009.17,547.78 1007.18,548.66 1005.19,549.55 1003.19,550.44 1001.17,551.33 999.15,552.23 997.12,553.13 995.08,554.03 993.03,554.94 990.97,555.86 988.90,556.78 986.82,557.70 984.73,558.63 982.63,559.56 980.53,560.49 978.41,561.43 976.29,562.38 974.16,563.33 972.02,564.28 969.87,565.24 967.71,566.20 965.55,567.16 963.37,568.13 961.19,569.11 959.00,570.09 956.81,571.07 954.60,572.06 952.39,573.05 950.17,574.04 947.94,575.04 945.71,576.04 943.47,577.05 942.66,577.42" type="driving"/>
  </edge>
  <edge id="-1" from="0" to="2.1" priority="1" type="driving" shape="938.20,577.37 936.54,578.12 934.89,578.86 933.22,579.61 931.56,580.37 929.89,581.12 928.22,581.88 926.54,582.64 924.87,583.40 923.18,584.16 921.50,584.93 919.81,585.69 918.12,586.46 916.42,587.24 914.73,588.01 913.03,588.79 911.32,589.56 909.61,590.35 907.90,591.13 906.19,591.91 904.48,592.70 902.76,593.49 901.04,594.28 899.31,595.07 897.58,595.87 895.86,596.67 894.12,597.47 892.39,598.27 890.65,599.07 888.91,599.88 887.17,600.69 885.42,601.50 883.68,602.31 881.93,603.12 880.17,603.94 878.42,604.76 876.66,605.58 874.90,606.40 873.14,607.23 871.38,608.05 869.62,608.88 867.85,609.71 866.08,610.54 864.31,611.38 862.54,612.22 860.76,613.06 858.98,613.90 857.21,614.74 855.42,615.58 853.64,616.43 851.86,617.28 850.07,618.13 848.29,618.99 846.50,619.84 844.71,620.70 842.92,621.56 841.12,622.42 839.33,623.28 837.53,624.15 835.74,625.01 833.94,625.88 832.14,626.75 830.34,627.63 828.54,628.50 826.73,629.38 824.93,630.26 823.12,631.14 821.32,632.02 819.51,632.91 817.70,633.79 815.89,634.68 814.08,635.57 812.27,636.47 810.46,637.36 808.65,638.26 806.84,639.16 805.02,640.06 803.21,640.96 801.40,641.86 799.58,642.77 797.77,643.68 795.95,644.59 794.13,645.50 792.32,646.41 790.50,647.33 788.68,648.25 786.86,649.17 785.05,650.09 783.23,651.01 781.41,651.93 779.59,652.86 777.77,653.79 775.96,654.72 774.14,655.65 772.32,656.59 770.50,657.52 768.69,658.46 766.87,659.40 765.05,660.34 763.23,661.29 761.42,662.23 759.60,663.18 757.79,664.13 755.97,665.08 754.15,666.03 752.34,666.99 750.53,667.94 748.71,668.90 746.90,669.86 745.09,670.82 743.28,671.79 741.47,672.75 739.66,673.72 737.85,674.69 736.04,675.66 734.23,676.63 732.43,677.61 730.62,678.58 728.82,679.56 727.02,680.54 725.22,681.52 723.41,682.50 721.62,683.49 719.82,684.48 718.02,685.46 716.22,686.45 714.43,687.45 712.64,688.44 710.85,689.44 709.06,690.43 707.27,691.43 705.48,692.43 703.70,693.43 701.91,694.44 700.13,695.44 698.35,696.45 696.57,697.46 694.80,698.47 693.02,699.48 691.25,700.50 689.48,701.51 687.71,702.53 685.94,703.55 684.18,704.57 682.42,705.59 680.66,706.62 678.90,707.64 677.14,708.67 675.39,709.70 673.64,710.73 671.89,711.76 670.14,712.80 668.40,713.83 666.66,714.87 664.92,715.91 663.18,716.95 661.44,717.99 659.71,719.04 657.98,720.08 656.26,721.13 654.53,722.18 652.81,723.23 651.09,724.28 649.38,725.33 647.67,726.39 645.96,727.44 644.25,728.50 642.55,729.56 640.85,730.62 639.15,731.69 637.46,732.75 635.77,733.82 634.08,734.89 632.39,735.96 630.71,737.03 629.03,738.10 627.36,739.17 625.69,740.25 624.02,741.33">
    <lane id="-1_0" index="0" disallow="pedestrian tram rail_urban rail rail_electric rail_fast ship" speed="22.22" length="337.40" width="3.75" shape="927.20,592.64 927.06,592.70 925.38,593.46 923.69,594.23 922.00,595.00 920.31,595.77 918.62,596.54 916.92,597.31 915.22,598.09 913.51,598.87 911.81,599.65 910.10,600.43 908.39,601.22 906.67,602.01 904.95,602.80 903.23,603.59 901.51,604.38 899.78,605.18 898.05,605.98 896.32,606.78 894.59,607.58 892.85,608.38 891.11,609.19 889.37,610.00 887.63,610.81 885.88,611.62 884.14,612.44 882.39,613.25 880.63,614.07 878.88,614.89 877.12,615.71 875.36,616.54 873.60,617.37 871.84,618.19 870.08,619.03 868.31,619.86 866.54,620.69 864.77,621.53 863.00,622.37 861.22,623.21 859.45,624.05 857.67,624.90 855.89,625.74 854.11,626.59 852.33,627.44 850.55,628.30 848.76,629.15 846.97,630.01 845.19,630.87 843.40,631.73 841.61,632.59 839.81,633.46 838.02,634.32 836.23,635.19 834.43,636.06 832.63,636.93 830.84,637.81 829.04,638.68 827.24,639.56 825.44,640.44 823.64,641.33 821.83,642.21 820.03,643.10 818.23,643.98 816.42,644.87 814.62,645.77 812.81,646.66 811.00,647.55 809.20,648.45 807.39,649.35 805.58,650.25 803.77,651.16 801.96,652.06 800.15,652.97 798.34,653.88 796.53,654.79 794.72,655.70 792.91,656.61 791.10,657.53 789.29,658.45 787.48,659.37 785.67,660.29 783.85,661.21 782.04,662.14 780.23,663.06 778.42,663.99 776.61,664.92 774.80,665.86 772.99,666.79 771.18,667.73 769.37,668.67 767.56,669.61 765.75,670.55 763.94,671.49 762.13,672.44 760.32,673.38 758.52,674.33 756.71,675.28 754.90,676.23 753.10,677.19 751.29,678.14 749.49,679.10 747.68,680.06 745.88,681.02 744.08,681.99 742.28,682.95 740.48,683.92 738.68,684.89 736.88,685.86 735.09,686.83 733.29,687.80 731.50,688.78 729.70,689.75 727.91,690.73 726.12,691.71 724.33,692.69 722.54,693.68 720.76,694.66 718.97,695.65 717.19,696.64 715.41,697.63 713.62,698.62 711.85,699.61 710.07,700.61 708.29,701.61 706.52,702.60 704.75,703.60 702.97,704.61 701.21,705.61 699.44,706.62 697.67,707.62 695.91,708.63 694.15,709.64 692.39,710.65 690.63,711.67 688.88,712.68 687.13,713.70 685.38,714.72 683.63,715.74 681.88,716.76 680.14,717.78 678.40,718.81 676.66,719.83 674.92,720.86 673.19,721.89 671.46,722.92 669.73,723.95 668.00,724.99 666.28,726.02 664.56,727.06 662.84,728.10 661.12,729.14 659.41,730.18 657.70,731.23 656.00,732.27 654.29,733.32 652.59,734.37 650.89,735.42 649.20,736.47 647.51,737.52 645.82,738.57 644.13,739.63 642.45,740.69 640.77,741.74 639.10,742.80 637.42,743.87 635.75,744.93 634.09,745.99 632.43,747.06 630.77,748.13 629.24,749.12" type="driving"/>
    <lane id="-1_1" index="1" disallow="pedestrian tram rail_urban rail rail_electric rail_fast ship" speed="22.22" length="337.40" width="3.75" shape="925.65,589.22 925.51,589.28 923.83,590.05 922.14,590.81 920.45,591.58 918.76,592.35 917.06,593.13 915.36,593.90 913.66,594.68 911.95,595.46 910.25,596.24 908.54,597.03 906.82,597.81 905.11,598.60 903.39,599.39 901.66,600.18 899.94,600.98 898.21,601.77 896.48,602.57 894.75,603.37 893.01,604.18 891.28,604.98 889.54,605.79 887.79,606.60 886.05,607.41 884.30,608.22 882.55,609.04 880.80,609.85 879.05,610.67 877.29,611.49 875.53,612.32 873.77,613.14 872.01,613.97 870.24,614.80 868.48,615.63 866.71,616.47 864.94,617.30 863.17,618.14 861.39,618.98 859.62,619.82 857.84,620.67 856.06,621.51 854.28,622.36 852.50,623.21 850.71,624.06 848.93,624.91 847.14,625.77 845.35,626.63 843.56,627.49 841.77,628.35 839.98,629.21 838.18,630.08 836.39,630.95 834.59,631.82 832.79,632.69 831.00,633.56 829.20,634.44 827.39,635.31 825.59,636.19 823.79,637.08 821.99,637.96 820.18,638.84 818.38,639.73 816.57,640.62 814.76,641.51 812.95,642.40 811.15,643.30 809.34,644.19 807.53,645.09 805.72,645.99 803.91,646.90 802.10,647.80 800.28,648.71 798.47,649.61 796.66,650.52 794.85,651.44 793.03,652.35 791.22,653.27 789.41,654.18 787.59,655.10 785.78,656.02 783.96,656.95 782.15,657.87 780.34,658.80 778.52,659.73 776.71,660.66 774.89,661.59 773.08,662.52 771.27,663.46 769.45,664.40 767.64,665.34 765.83,666.28 764.02,667.22 762.20,668.17 760.39,669.11 758.58,670.06 756.77,671.01 754.96,671.96 753.15,672.92 751.34,673.87 749.54,674.83 747.73,675.79 745.92,676.75 744.12,677.71 742.31,678.68 740.51,679.65 738.70,680.61 736.90,681.58 735.10,682.56 733.30,683.53 731.50,684.50 729.70,685.48 727.91,686.46 726.11,687.44 724.32,688.42 722.53,689.41 720.73,690.39 718.94,691.38 717.16,692.37 715.37,693.36 713.58,694.35 711.80,695.34 710.01,696.34 708.23,697.34 706.45,698.34 704.68,699.34 702.90,700.34 701.13,701.34 699.35,702.35 697.58,703.36 695.81,704.37 694.05,705.38 692.28,706.39 690.52,707.40 688.76,708.42 687.00,709.44 685.24,710.46 683.49,711.48 681.74,712.50 679.99,713.52 678.24,714.55 676.49,715.58 674.75,716.60 673.01,717.63 671.27,718.67 669.54,719.70 667.80,720.74 666.07,721.77 664.35,722.81 662.62,723.85 660.90,724.89 659.18,725.94 657.46,726.98 655.75,728.03 654.04,729.07 652.33,730.12 650.62,731.17 648.92,732.23 647.22,733.28 645.52,734.34 643.83,735.39 642.14,736.45 640.45,737.51 638.77,738.57 637.09,739.64 635.41,740.70 633.74,741.77 632.07,742.84 630.40,743.91 628.74,744.98 627.20,745.97" type="driving"/>
    <lane id="-1_2" index="2" disallow="pedestrian tram rail_urban rail rail_electric rail_fast ship" speed="22.22" length="337.40" width="3.75" shape="924.10,585.81 923.96,585.87 922.28,586.63 920.59,587.40 918.90,588.17 917.20,588.94 915.50,589.72 913.80,590.49 912.10,591.27 910.39,592.05 908.69,592.83 906.97,593.62 905.26,594.40 903.54,595.19 901.82,595.98 900.10,596.78 898.37,597.57 896.64,598.37 894.91,599.17 893.17,599.97 891.44,600.77 889.70,601.58 887.96,602.39 886.21,603.20 884.47,604.01 882.72,604.82 880.97,605.64 879.21,606.46 877.46,607.28 875.70,608.10 873.94,608.92 872.18,609.75 870.41,610.58 868.65,611.41 866.88,612.24 865.11,613.08 863.34,613.91 861.56,614.75 859.79,615.59 858.01,616.43 856.23,617.28 854.45,618.13 852.67,618.97 850.88,619.82 849.10,620.68 847.31,621.53 845.52,622.39 843.73,623.25 841.94,624.11 840.14,624.97 838.35,625.84 836.55,626.70 834.75,627.57 832.96,628.44 831.16,629.31 829.36,630.19 827.55,631.07 825.75,631.94 823.95,632.82 822.14,633.71 820.34,634.59 818.53,635.48 816.72,636.37 814.91,637.26 813.10,638.15 811.29,639.04 809.48,639.94 807.67,640.84 805.86,641.74 804.05,642.64 802.23,643.54 800.42,644.45 798.60,645.35 796.79,646.26 794.97,647.17 793.16,648.09 791.34,649.00 789.53,649.92 787.71,650.84 785.90,651.76 784.08,652.68 782.26,653.61 780.45,654.53 778.63,655.46 776.81,656.39 775.00,657.32 773.18,658.26 771.36,659.19 769.55,660.13 767.73,661.07 765.91,662.01 764.10,662.95 762.28,663.90 760.47,664.84 758.65,665.79 756.84,666.74 755.03,667.69 753.21,668.65 751.40,669.60 749.59,670.56 747.78,671.52 745.97,672.48 744.16,673.44 742.35,674.41 740.54,675.37 738.74,676.34 736.93,677.31 735.12,678.28 733.32,679.26 731.52,680.23 729.71,681.21 727.91,682.19 726.11,683.17 724.31,684.15 722.52,685.13 720.72,686.12 718.92,687.11 717.13,688.10 715.34,689.09 713.55,690.08 711.76,691.07 709.97,692.07 708.18,693.07 706.40,694.07 704.62,695.07 702.83,696.07 701.05,697.08 699.28,698.08 697.50,699.09 695.73,700.10 693.95,701.11 692.18,702.12 690.41,703.14 688.65,704.15 686.88,705.17 685.12,706.19 683.36,707.21 681.60,708.24 679.84,709.26 678.09,710.29 676.34,711.32 674.59,712.35 672.84,713.38 671.10,714.41 669.36,715.44 667.62,716.48 665.88,717.52 664.14,718.56 662.41,719.60 660.68,720.64 658.95,721.68 657.23,722.73 655.51,723.78 653.79,724.83 652.07,725.88 650.36,726.93 648.65,727.98 646.94,729.04 645.24,730.10 643.54,731.15 641.84,732.21 640.15,733.28 638.45,734.34 636.77,735.40 635.08,736.47 633.40,737.54 631.72,738.61 630.04,739.68 628.37,740.75 626.70,741.82 625.17,742.82" type="driving"/>
  </edge>