<?xml version='1.0' encoding='UTF-8'?>
<!-- generated on 2022-09-06 05:25:25 by Eclipse SUMO netconvert Version 1.13.0
<configuration xmlns:xsi="http://www.w3.org/2001/XMLSchema-instance" xsi:noNamespaceSchemaLocation="http://sumo.dlr.de/xsd/netconvertConfiguration.xsd">

    <input>
        <opendrive-files value="map\8\72362537\72362537.xodr"/>
    </input>

    <output>
        <output-file value="C:\Users\LinGe\AppData\Local\Temp\tmpfsmr_6de\72362537.net.xml"/>
    </output>

    <processing>
        <geometry.max-grade.fix value="false"/>
    </processing>

    <tls_building>
        <tls.left-green.time value="0"/>
    </tls_building>

    <junctions>
        <rectangular-lane-cut value="true"/>
    </junctions>

    <report>
        <aggregate-warnings value="5"/>
    </report>

</configuration>
-->
<net xmlns:xsi="http://www.w3.org/2001/XMLSchema-instance" version="1.9" junctionCornerDetail="5" rectangularLaneCut="true" limitTurnSpeed="5.50" xsi:noNamespaceSchemaLocation="http://sumo.dlr.de/xsd/net_file.xsd">
  <location netOffset="301.35,-56.47" convBoundary="0.00,0.00,1102.85,1145.01" origBoundary="-301.35,56.47,801.51,1201.48" projParameter="!"/>
  <type id="bidirectional" priority="1" speed="1.39" disallow="pedestrian tram rail_urban rail rail_electric rail_fast ship" width="3.65"/>
  <type id="border" priority="0" speed="1.39" disallow="all" discard="1" width="0.10"/>
  <type id="driving" priority="1" speed="13.89" disallow="pedestrian tram rail_urban rail rail_electric rail_fast ship" width="3.65"/>
  <type id="entry" priority="1" speed="22.22" disallow="pedestrian tram rail_urban rail rail_electric rail_fast ship" width="3.65"/>
  <type id="exit" priority="1" speed="22.22" disallow="pedestrian tram rail_urban rail rail_electric rail_fast ship" width="3.65"/>
  <type id="median" priority="0" speed="1.39" disallow="all" discard="1" width="0.10"/>
  <type id="mwyEntry" priority="1" speed="22.22" allow="private emergency authority army vip passenger hov taxi bus coach delivery truck trailer motorcycle evehicle custom1 custom2" width="3.65"/>
  <type id="mwyExit" priority="1" speed="22.22" allow="private emergency authority army vip passenger hov taxi bus coach delivery truck trailer motorcycle evehicle custom1 custom2" width="3.65"/>
  <type id="none" priority="0" speed="1.39" disallow="all" discard="1" width="1.00"/>
  <type id="offRamp" priority="1" speed="22.22" allow="private emergency authority army vip passenger hov taxi bus coach delivery truck trailer motorcycle evehicle custom1 custom2" width="3.65"/>
  <type id="onRamp" priority="1" speed="22.22" allow="private emergency authority army vip passenger hov taxi bus coach delivery truck trailer motorcycle evehicle custom1 custom2" width="3.65"/>
  <type id="parking" priority="1" speed="1.39" disallow="pedestrian tram rail_urban rail rail_electric rail_fast ship" width="2.50"/>
  <type id="rail" priority="3" speed="33.33" allow="rail_urban rail rail_electric rail_fast" width="3.65"/>
  <type id="restricted" priority="0" speed="13.89" disallow="all" width="3.65"/>
  <type id="roadWorks" priority="0" speed="1.39" allow="authority" width="3.65"/>
  <type id="shoulder" priority="0" speed="1.39" disallow="all" discard="1" width="1.00"/>
  <type id="special1" priority="1" speed="22.22" allow="custom1" discard="1" width="3.65"/>
  <type id="special2" priority="1" speed="22.22" allow="custom2" discard="1" width="3.65"/>
  <type id="special3" priority="1" speed="22.22" allow="custom1 custom2" discard="1" width="3.65"/>
  <type id="stop" priority="1" speed="13.89" disallow="pedestrian tram rail_urban rail rail_electric rail_fast ship" width="3.65"/>
  <type id="tram" priority="2" speed="13.89" allow="tram" width="3.65"/>
  <edge id=":0_0" function="internal">
    <lane id=":0_0_0" index="0" disallow="pedestrian tram rail_urban rail rail_electric rail_fast ship" speed="15.97" length="38.69" width="3.75" shape="54.51,1097.47 64.32,1091.18,0.02 73.51,1084.41,0.03 80.99,1078.44,0.04 85.64,1074.56,0.05"/>
  </edge>
  <edge id=":0_1" function="internal">
    <lane id=":0_1_0" index="0" disallow="pedestrian tram rail_urban rail rail_electric rail_fast ship" speed="22.22" length="38.80" width="3.75" shape="54.51,1097.47 88.19,1078.18"/>
    <lane id=":0_1_1" index="1" disallow="pedestrian tram rail_urban rail rail_electric rail_fast ship" speed="22.22" length="38.80" width="3.75" shape="56.39,1100.72 90.06,1081.44"/>
    <lane id=":0_1_2" index="2" disallow="pedestrian tram rail_urban rail rail_electric rail_fast ship" speed="22.22" length="38.80" width="3.75" shape="58.26,1103.97 91.92,1084.69"/>
  </edge>
  <edge id=":1_0" function="internal">
    <lane id=":1_0_0" index="0" disallow="pedestrian tram rail_urban rail rail_electric rail_fast ship" speed="15.28" length="8.02" width="3.75" shape="540.15,639.50 545.08,633.16,0.00"/>
  </edge>
  <edge id=":1.0_0" function="internal">
    <lane id=":1.0_0_0" index="0" disallow="pedestrian tram rail_urban rail rail_electric rail_fast ship" speed="22.22" length="0.30" width="3.75" shape="354.83,916.60 354.60,916.80"/>
    <lane id=":1.0_0_1" index="1" disallow="pedestrian tram rail_urban rail rail_electric rail_fast ship" speed="22.22" length="0.30" width="3.75" shape="352.30,913.82 352.08,914.03"/>
    <lane id=":1.0_0_2" index="2" disallow="pedestrian tram rail_urban rail rail_electric rail_fast ship" speed="22.22" length="0.30" width="3.75" shape="349.78,911.05 349.56,911.25"/>
  </edge>
  <edge id=":12.11_0" function="internal">
    <lane id=":12.11_0_0" index="0" disallow="pedestrian tram rail_urban rail rail_electric rail_fast ship" speed="22.22" length="0.30" width="3.75" shape="840.09,479.80,20.00 839.90,479.58,20.00"/>
    <lane id=":12.11_0_1" index="1" disallow="pedestrian tram rail_urban rail rail_electric rail_fast ship" speed="22.22" length="0.30" width="3.75" shape="842.92,477.33,20.00 842.72,477.11,20.00"/>
    <lane id=":12.11_0_2" index="2" disallow="pedestrian tram rail_urban rail rail_electric rail_fast ship" speed="22.22" length="0.30" width="3.75" shape="845.74,474.87,20.00 845.54,474.64,20.00"/>
  </edge>
  <edge id=":15.14_0" function="internal">
    <lane id=":15.14_0_0" index="0" disallow="pedestrian tram rail_urban rail rail_electric rail_fast ship" speed="22.22" length="0.30" width="3.75" shape="707.12,783.01,12.75 706.83,783.10,12.74"/>
  </edge>
  <edge id=":17.16_0" function="internal">
    <lane id=":17.16_0_0" index="0" disallow="pedestrian tram rail_urban rail rail_electric rail_fast ship" speed="9.72" length="0.30" width="3.75" shape="491.75,666.31,10.94 491.90,666.05,10.94"/>
  </edge>
  <edge id=":19.18_0" function="internal">
    <lane id=":19.18_0_0" index="0" disallow="pedestrian tram rail_urban rail rail_electric rail_fast ship" speed="11.11" length="0.29" width="3.75" shape="696.57,358.04,9.62 696.61,358.33,9.61"/>
  </edge>
  <edge id=":2_0" function="internal">
    <lane id=":2_0_0" index="0" disallow="pedestrian tram rail_urban rail rail_electric rail_fast ship" speed="16.67" length="51.54" width="3.75" shape="472.90,93.93,20.00 483.40,102.67,20.00 495.99,112.29,20.00 507.26,120.54,20.00 513.85,125.19,20.00"/>
  </edge>
  <edge id=":2_1" function="internal">
    <lane id=":2_1_0" index="0" disallow="pedestrian tram rail_urban rail rail_electric rail_fast ship" speed="22.22" length="51.64" width="3.75" shape="472.90,93.93,20.00 511.19,128.58,20.00"/>
    <lane id=":2_1_1" index="1" disallow="pedestrian tram rail_urban rail rail_electric rail_fast ship" speed="22.22" length="51.64" width="3.75" shape="470.38,96.71,20.00 508.68,131.36,20.00"/>
    <lane id=":2_1_2" index="2" disallow="pedestrian tram rail_urban rail rail_electric rail_fast ship" speed="22.22" length="51.64" width="3.75" shape="467.86,99.49,20.00 506.16,134.14,20.00"/>
  </edge>
  <edge id=":21.20_0" function="internal">
    <lane id=":21.20_0_0" index="0" disallow="pedestrian tram rail_urban rail rail_electric rail_fast ship" speed="8.33" length="0.30" width="3.75" shape="985.26,175.23,9.92 985.39,174.96,9.93"/>
  </edge>
  <edge id=":3_0" function="internal">
    <lane id=":3_0_0" index="0" disallow="pedestrian tram rail_urban rail rail_electric rail_fast ship" speed="22.22" length="23.73" width="3.75" shape="1043.06,771.18,20.00 1038.58,764.64,19.99 1034.28,759.89,19.98 1030.30,756.55,19.97 1026.79,754.24,19.96"/>
  </edge>
  <edge id=":3_1" function="internal">
    <lane id=":3_1_0" index="0" disallow="pedestrian tram rail_urban rail rail_electric rail_fast ship" speed="22.22" length="24.19" width="3.75" shape="1043.06,771.18,20.00 1030.69,750.40,20.00"/>
    <lane id=":3_1_1" index="1" disallow="pedestrian tram rail_urban rail rail_electric rail_fast ship" speed="22.22" length="24.19" width="3.75" shape="1046.28,769.26,20.00 1033.91,748.48,20.00"/>
    <lane id=":3_1_2" index="2" disallow="pedestrian tram rail_urban rail rail_electric rail_fast ship" speed="22.22" length="24.19" width="3.75" shape="1049.50,767.35,20.00 1037.13,746.56,20.00"/>
  </edge>
  <edge id=":4_0" function="internal">
    <lane id=":4_0_0" index="0" disallow="pedestrian tram rail_urban rail rail_electric rail_fast ship" speed="22.22" length="103.67" width="3.75" shape="248.24,1008.61 159.66,1062.48"/>
  </edge>
  <edge id=":4_1" function="internal">
    <lane id=":4_1_0" index="0" disallow="pedestrian tram rail_urban rail rail_electric rail_fast ship" speed="22.22" length="103.27" width="3.75" shape="245.96,1005.23 159.66,1062.48"/>
    <lane id=":4_1_1" index="1" disallow="pedestrian tram rail_urban rail rail_electric rail_fast ship" speed="22.22" length="103.27" width="3.75" shape="243.76,1002.19 157.71,1059.28"/>
    <lane id=":4_1_2" index="2" disallow="pedestrian tram rail_urban rail rail_electric rail_fast ship" speed="22.22" length="103.27" width="3.75" shape="241.56,999.15 155.75,1056.08"/>
  </edge>
  <edge id=":5_0" function="internal">
    <lane id=":5_0_0" index="0" disallow="pedestrian tram rail_urban rail rail_electric rail_fast ship" speed="15.97" length="50.82" width="3.75" shape="605.26,251.61,19.89 600.28,245.42,19.90 591.31,235.03,19.93 580.80,223.51,19.97 571.23,213.91,20.00"/>
  </edge>
  <edge id=":5_1" function="internal">
    <lane id=":5_1_0" index="0" disallow="pedestrian tram rail_urban rail rail_electric rail_fast ship" speed="22.22" length="50.30" width="3.75" shape="608.19,248.00,20.00 571.23,213.91,20.00"/>
    <lane id=":5_1_1" index="1" disallow="pedestrian tram rail_urban rail rail_electric rail_fast ship" speed="22.22" length="50.30" width="3.75" shape="610.74,245.25,20.00 573.76,211.15,20.00"/>
    <lane id=":5_1_2" index="2" disallow="pedestrian tram rail_urban rail rail_electric rail_fast ship" speed="22.22" length="50.30" width="3.75" shape="613.29,242.50,20.00 576.29,208.39,20.00"/>
  </edge>
  <edge id=":5.4_0" function="internal">
    <lane id=":5.4_0_0" index="0" disallow="pedestrian tram rail_urban rail rail_electric rail_fast ship" speed="22.22" length="0.30" width="3.75" shape="339.30,899.97 339.52,899.77"/>
    <lane id=":5.4_0_1" index="1" disallow="pedestrian tram rail_urban rail rail_electric rail_fast ship" speed="22.22" length="0.30" width="3.75" shape="341.82,902.74 342.04,902.54"/>
    <lane id=":5.4_0_2" index="2" disallow="pedestrian tram rail_urban rail rail_electric rail_fast ship" speed="22.22" length="0.30" width="3.75" shape="344.34,905.52 344.57,905.31"/>
  </edge>
  <edge id=":6_0" function="internal">
    <lane id=":6_0_0" index="0" disallow="pedestrian tram rail_urban rail rail_electric rail_fast ship" speed="16.67" length="7.91" width="3.75" shape="562.55,647.57,0.00 557.74,653.85"/>
  </edge>
  <edge id=":7_0" function="internal">
    <lane id=":7_0_0" index="0" disallow="pedestrian tram rail_urban rail rail_electric rail_fast ship" speed="10.67" length="17.02" width="3.75" shape="711.23,300.79,19.99 710.15,305.56,19.99 710.23,309.79,20.00 711.49,313.49,20.00 713.91,316.67,20.00"/>
  </edge>
  <edge id=":7_1" function="internal">
    <lane id=":7_1_0" index="0" disallow="pedestrian tram rail_urban rail rail_electric rail_fast ship" speed="22.22" length="14.45" width="3.75" shape="703.50,306.63,20.00 713.91,316.67,20.00"/>
    <lane id=":7_1_1" index="1" disallow="pedestrian tram rail_urban rail rail_electric rail_fast ship" speed="22.22" length="14.45" width="3.75" shape="700.90,309.33,20.00 711.30,319.36,20.00"/>
    <lane id=":7_1_2" index="2" disallow="pedestrian tram rail_urban rail rail_electric rail_fast ship" speed="22.22" length="14.45" width="3.75" shape="698.30,312.03,20.00 708.69,322.06,20.00"/>
  </edge>
  <edge id=":9.8_0" function="internal">
    <lane id=":9.8_0_0" index="0" disallow="pedestrian tram rail_urban rail rail_electric rail_fast ship" speed="22.22" length="0.30" width="3.75" shape="857.02,464.59,20.00 857.22,464.82,20.00"/>
    <lane id=":9.8_0_1" index="1" disallow="pedestrian tram rail_urban rail rail_electric rail_fast ship" speed="22.22" length="0.30" width="3.75" shape="854.20,467.07,20.00 854.39,467.29,20.00"/>
    <lane id=":9.8_0_2" index="2" disallow="pedestrian tram rail_urban rail rail_electric rail_fast ship" speed="22.22" length="0.30" width="3.75" shape="851.38,469.54,20.00 851.57,469.76,20.00"/>
  </edge>
  <edge id="-0" from="6" to="1.0" priority="1" type="driving" shape="552.69,645.01 551.61,646.41 550.55,647.81 549.50,649.20 548.46,650.59 547.44,651.97 546.42,653.34 545.42,654.71 544.44,656.08 543.46,657.44 542.49,658.79 541.54,660.14 540.60,661.49 539.66,662.83 538.74,664.17 537.83,665.51 536.93,666.84 536.03,668.16 535.15,669.49 534.27,670.81 533.41,672.12 532.55,673.44 531.70,674.75 530.86,676.06 530.02,677.36 529.20,678.66 528.38,679.96 527.56,681.26 526.76,682.56 525.96,683.85 525.16,685.14 524.37,686.43 523.59,687.72 522.81,689.00 522.04,690.29 521.27,691.57 520.51,692.86 519.75,694.14 518.99,695.42 518.24,696.70 517.49,697.98 516.74,699.26 516.00,700.54 515.25,701.82 514.51,703.10 513.78,704.38 513.04,705.66 512.31,706.94 511.57,708.22 510.84,709.50 510.11,710.79 509.38,712.07 508.64,713.36 507.91,714.64 507.18,715.93 506.44,717.22 505.71,718.51 504.97,719.80 504.24,721.10 503.50,722.40 502.75,723.70 502.01,725.00 501.26,726.30 500.51,727.61 499.76,728.92 499.00,730.23 498.24,731.55 497.47,732.87 496.71,734.19 495.93,735.52 495.15,736.85 494.37,738.18 493.58,739.52 492.78,740.86 491.98,742.21 491.17,743.56 490.36,744.91 489.54,746.27 488.71,747.63 487.88,749.00 487.03,750.38 486.18,751.76 485.32,753.14 484.45,754.53 483.58,755.93 482.69,757.33 481.80,758.74 480.89,760.15 479.98,761.57 479.06,762.99 478.12,764.43 477.18,765.87 476.22,767.31 475.25,768.76 474.28,770.22 473.29,771.69 472.28,773.16 471.27,774.64 470.24,776.13 469.20,777.63 468.15,779.13 467.08,780.65 466.00,782.17 464.91,783.70 463.80,785.23 462.68,786.78 461.54,788.33 460.39,789.90 459.22,791.47 458.04,793.05 456.84,794.64 455.63,796.24 454.40,797.85 453.15,799.47 451.89,801.09 450.60,802.73 449.31,804.38 447.99,806.04 446.65,807.71 445.30,809.39 443.93,811.08 442.54,812.78 441.13,814.49 439.70,816.21 438.25,817.95 436.79,819.69 435.30,821.45 433.79,823.22 432.26,825.00 430.71,826.79 429.14,828.59 427.55,830.41 425.93,832.24 424.30,834.08 422.64,835.93 420.96,837.79 419.25,839.67 417.52,841.56 415.77,843.47 414.00,845.39 412.20,847.32 410.38,849.26 408.53,851.22 406.66,853.19 404.76,855.18 402.84,857.18 400.89,859.19 398.92,861.22 396.92,863.27 394.89,865.32 392.84,867.40 390.76,869.48 388.65,871.59 386.52,873.70 384.36,875.84 382.17,877.98 379.95,880.15 377.70,882.33 375.42,884.52 373.12,886.74 370.78,888.96 368.42,891.21 366.03,893.47 363.60,895.75 361.15,898.04 358.66,900.35 356.15,902.68 353.60,905.02 351.02,907.38 348.41,909.76">
    <lane id="-0_0" index="0" disallow="pedestrian tram rail_urban rail rail_electric rail_fast ship" speed="22.22" length="333.11" width="3.75" shape="557.74,653.85 556.99,654.84 555.98,656.19 554.97,657.54 553.98,658.89 553.01,660.23 552.04,661.56 551.08,662.89 550.14,664.22 549.21,665.54 548.28,666.86 547.37,668.17 546.47,669.48 545.58,670.78 544.69,672.09 543.82,673.38 542.95,674.68 542.10,675.97 541.25,677.26 540.41,678.55 539.57,679.84 538.75,681.12 537.93,682.40 537.12,683.68 536.31,684.95 535.52,686.23 534.72,687.50 533.94,688.77 533.15,690.04 532.38,691.31 531.61,692.58 530.84,693.85 530.08,695.11 529.32,696.38 528.57,697.65 527.81,698.91 527.07,700.18 526.32,701.45 525.58,702.71 524.84,703.98 524.10,705.25 523.37,706.52 522.63,707.79 521.90,709.06 521.17,710.33 520.44,711.60 519.71,712.88 518.98,714.15 518.25,715.43 517.52,716.71 516.79,718.00 516.06,719.28 515.33,720.57 514.59,721.86 513.86,723.15 513.12,724.44 512.38,725.74 511.64,727.04 510.89,728.35 510.15,729.66 509.39,730.97 508.64,732.28 507.88,733.60 507.12,734.92 506.35,736.25 505.58,737.58 504.81,738.91 504.02,740.25 503.24,741.59 502.45,742.94 501.65,744.29 500.84,745.65 500.03,747.01 499.21,748.38 498.39,749.75 497.56,751.13 496.72,752.51 495.87,753.90 495.02,755.29 494.15,756.69 493.28,758.09 492.40,759.51 491.51,760.92 490.61,762.35 489.70,763.78 488.78,765.21 487.86,766.66 486.92,768.10 485.97,769.56 485.01,771.02 484.03,772.49 483.05,773.97 482.05,775.46 481.05,776.95 480.03,778.45 478.99,779.96 477.95,781.47 476.89,782.99 475.82,784.52 474.74,786.06 473.64,787.61 472.52,789.16 471.40,790.73 470.26,792.30 469.10,793.88 467.93,795.47 466.74,797.07 465.54,798.68 464.32,800.29 463.08,801.92 461.83,803.56 460.57,805.20 459.28,806.86 457.98,808.52 456.66,810.20 455.32,811.88 453.97,813.58 452.59,815.28 451.20,817.00 449.79,818.72 448.36,820.46 446.91,822.21 445.44,823.97 443.95,825.74 442.44,827.52 440.91,829.31 439.36,831.12 437.79,832.93 436.20,834.76 434.58,836.60 432.95,838.45 431.29,840.32 429.61,842.19 427.91,844.08 426.18,845.98 424.44,847.90 422.66,849.82 420.87,851.76 419.05,853.72 417.21,855.68 415.34,857.66 413.45,859.66 411.53,861.66 409.59,863.69 407.62,865.72 405.63,867.77 403.61,869.83 401.56,871.91 399.49,874.00 397.39,876.11 395.26,878.23 393.11,880.37 390.93,882.52 388.72,884.69 386.48,886.87 384.22,889.07 381.92,891.28 379.60,893.51 377.25,895.75 374.87,898.02 372.45,900.29 370.01,902.59 367.54,904.90 365.04,907.22 362.50,909.57 359.94,911.93 357.34,914.31 354.83,916.60" type="driving"/>
    <lane id="-0_1" index="1" disallow="pedestrian tram rail_urban rail rail_electric rail_fast ship" speed="22.22" length="333.11" width="3.75" shape="554.75,651.59 553.99,652.58 552.97,653.95 551.96,655.31 550.96,656.67 549.97,658.02 549.00,659.37 548.03,660.71 547.08,662.05 546.14,663.38 545.21,664.71 544.29,666.03 543.38,667.36 542.48,668.67 541.59,669.99 540.70,671.30 539.83,672.60 538.97,673.91 538.11,675.21 537.26,676.51 536.43,677.80 535.59,679.09 534.77,680.38 533.95,681.67 533.14,682.96 532.34,684.24 531.54,685.52 530.74,686.80 529.96,688.08 529.18,689.36 528.40,690.63 527.63,691.91 526.86,693.18 526.10,694.46 525.34,695.73 524.59,697.00 523.84,698.28 523.09,699.55 522.34,700.82 521.60,702.09 520.86,703.37 520.12,704.64 519.39,705.91 518.65,707.19 517.92,708.46 517.19,709.74 516.46,711.02 515.72,712.29 514.99,713.57 514.26,714.86 513.53,716.14 512.80,717.43 512.07,718.71 511.33,720.00 510.60,721.29 509.86,722.59 509.12,723.89 508.38,725.18 507.64,726.49 506.89,727.79 506.14,729.10 505.39,730.41 504.63,731.73 503.87,733.05 503.11,734.37 502.34,735.69 501.57,737.02 500.79,738.36 500.00,739.69 499.21,741.04 498.42,742.38 497.62,743.73 496.81,745.09 496.00,746.45 495.18,747.81 494.35,749.18 493.52,750.56 492.67,751.94 491.82,753.32 490.96,754.72 490.10,756.11 489.22,757.52 488.34,758.92 487.44,760.34 486.54,761.76 485.63,763.19 484.71,764.62 483.77,766.06 482.83,767.51 481.87,768.96 480.91,770.42 479.93,771.89 478.94,773.36 477.94,774.84 476.93,776.33 475.90,777.83 474.87,779.34 473.82,780.85 472.75,782.37 471.67,783.90 470.58,785.43 469.48,786.98 468.36,788.53 467.23,790.09 466.08,791.66 464.91,793.24 463.73,794.83 462.54,796.43 461.33,798.03 460.10,799.65 458.86,801.27 457.60,802.91 456.32,804.55 455.03,806.21 453.72,807.87 452.39,809.54 451.04,811.23 449.68,812.92 448.29,814.63 446.89,816.35 445.47,818.07 444.03,819.81 442.57,821.56 441.08,823.32 439.58,825.09 438.06,826.87 436.52,828.67 434.96,830.48 433.37,832.29 431.77,834.12 430.14,835.97 428.49,837.82 426.82,839.69 425.13,841.57 423.41,843.46 421.67,845.36 419.91,847.28 418.12,849.21 416.31,851.16 414.48,853.12 412.62,855.09 410.73,857.07 408.82,859.07 406.89,861.08 404.93,863.11 402.94,865.15 400.93,867.21 398.89,869.28 396.83,871.36 394.74,873.46 392.62,875.57 390.47,877.70 388.30,879.85 386.10,882.01 383.87,884.18 381.61,886.37 379.32,888.58 377.01,890.80 374.66,893.04 372.29,895.29 369.88,897.56 367.45,899.85 364.98,902.15 362.49,904.47 359.96,906.81 357.40,909.17 354.81,911.54 352.30,913.82" type="driving"/>
    <lane id="-0_2" index="2" disallow="pedestrian tram rail_urban rail rail_electric rail_fast ship" speed="22.22" length="333.11" width="3.75" shape="551.75,649.33 551.00,650.33 549.96,651.71 548.94,653.08 547.94,654.45 546.94,655.82 545.96,657.17 544.98,658.53 544.02,659.88 543.07,661.22 542.13,662.56 541.21,663.90 540.29,665.23 539.38,666.56 538.48,667.89 537.59,669.21 536.71,670.53 535.84,671.84 534.98,673.15 534.12,674.46 533.28,675.77 532.44,677.07 531.61,678.37 530.78,679.67 529.97,680.96 529.15,682.25 528.35,683.54 527.55,684.83 526.76,686.12 525.98,687.41 525.19,688.69 524.42,689.97 523.65,691.25 522.88,692.54 522.12,693.82 521.36,695.09 520.61,696.37 519.85,697.65 519.11,698.93 518.36,700.21 517.62,701.48 516.88,702.76 516.14,704.04 515.40,705.32 514.67,706.59 513.93,707.87 513.20,709.15 512.47,710.43 511.74,711.72 511.00,713.00 510.27,714.28 509.54,715.57 508.81,716.86 508.07,718.15 507.34,719.44 506.60,720.73 505.86,722.03 505.12,723.33 504.38,724.63 503.64,725.93 502.89,727.24 502.14,728.54 501.38,729.86 500.62,731.17 499.86,732.49 499.10,733.81 498.33,735.13 497.55,736.46 496.77,737.80 495.98,739.13 495.19,740.47 494.39,741.82 493.59,743.17 492.78,744.52 491.97,745.88 491.14,747.24 490.31,748.61 489.47,749.98 488.63,751.36 487.78,752.74 486.91,754.13 486.04,755.53 485.16,756.93 484.28,758.33 483.38,759.74 482.47,761.16 481.56,762.59 480.63,764.02 479.69,765.45 478.74,766.90 477.78,768.35 476.81,769.81 475.83,771.27 474.84,772.74 473.83,774.22 472.81,775.71 471.78,777.20 470.74,778.70 469.68,780.21 468.61,781.73 467.53,783.26 466.43,784.79 465.32,786.33 464.20,787.88 463.05,789.44 461.90,791.01 460.73,792.59 459.54,794.17 458.34,795.77 457.12,797.37 455.88,798.99 454.63,800.61 453.36,802.25 452.08,803.89 450.78,805.54 449.46,807.21 448.12,808.88 446.76,810.57 445.38,812.26 443.99,813.97 442.58,815.68 441.14,817.41 439.69,819.15 438.22,820.90 436.73,822.66 435.21,824.44 433.68,826.22 432.13,828.02 430.55,829.83 428.95,831.65 427.34,833.48 425.69,835.32 424.03,837.18 422.35,839.05 420.64,840.93 418.91,842.83 417.15,844.74 415.37,846.66 413.57,848.60 411.74,850.55 409.89,852.51 408.02,854.49 406.12,856.48 404.19,858.48 402.24,860.50 400.26,862.53 398.26,864.58 396.23,866.64 394.17,868.72 392.09,870.81 389.97,872.91 387.84,875.04 385.67,877.17 383.48,879.33 381.25,881.49 379.00,883.68 376.72,885.88 374.42,888.09 372.08,890.32 369.71,892.57 367.31,894.83 364.88,897.11 362.43,899.41 359.94,901.72 357.42,904.06 354.87,906.40 352.28,908.77 349.78,911.05" type="driving"/>
  </edge>
  <edge id="-1" from="1.0" to="4" priority="1" type="driving" shape="348.41,909.76 346.64,911.37 344.87,912.97 343.10,914.56 341.34,916.15 339.58,917.72 337.82,919.29 336.07,920.84 334.32,922.39 332.57,923.93 330.83,925.47 329.09,926.99 327.35,928.51 325.61,930.01 323.88,931.51 322.15,933.01 320.43,934.49 318.71,935.97 316.99,937.43 315.27,938.89 313.56,940.34 311.85,941.79 310.14,943.22 308.44,944.65 306.74,946.07 305.04,947.49 303.35,948.89 301.66,950.29 299.97,951.68 298.29,953.06 296.61,954.44 294.93,955.81 293.25,957.17 291.58,958.52 289.91,959.86 288.25,961.20 286.59,962.53 284.93,963.86 283.27,965.17 281.62,966.48 279.97,967.79 278.32,969.08 276.68,970.37 275.04,971.65 273.40,972.92 271.77,974.19 270.14,975.45 268.51,976.71 266.89,977.95 265.27,979.19 263.65,980.43 262.03,981.65 260.42,982.87 258.81,984.09 257.21,985.29 255.60,986.49 254.01,987.69 252.41,988.87 250.82,990.06 249.23,991.23 247.64,992.40 246.06,993.56 244.48,994.72 242.90,995.87 241.32,997.01 239.75,998.15 238.19,999.28 236.62,1000.40 235.06,1001.52 233.50,1002.63 231.95,1003.74 230.39,1004.84 228.85,1005.94 227.30,1007.03 225.76,1008.11 224.22,1009.19 222.68,1010.26 221.15,1011.33 219.62,1012.39 218.09,1013.45 216.57,1014.50 215.05,1015.54 213.53,1016.58 212.01,1017.61 210.50,1018.64 208.99,1019.66 207.49,1020.68 205.99,1021.69 204.49,1022.70 202.99,1023.70 201.50,1024.70 200.01,1025.69 198.53,1026.68 197.04,1027.66 195.56,1028.63 194.09,1029.61 192.61,1030.57 191.14,1031.53 189.67,1032.49 188.21,1033.44 186.75,1034.39 185.29,1035.33 183.84,1036.27 182.38,1037.20 180.94,1038.13 179.49,1039.05 178.05,1039.97 176.61,1040.89 175.17,1041.80 173.74,1042.71 172.31,1043.61 170.88,1044.50 169.46,1045.40 168.04,1046.29 166.62,1047.17 165.21,1048.05 163.80,1048.93 162.39,1049.80 160.98,1050.67 159.58,1051.53 158.18,1052.39">
    <lane id="-1_0" index="0" disallow="pedestrian tram rail_urban rail rail_electric rail_fast ship" speed="22.22" length="139.74" width="3.75" shape="354.60,916.80 352.93,918.32 351.15,919.93 349.37,921.53 347.59,923.13 345.82,924.71 344.05,926.29 342.29,927.86 340.52,929.42 338.76,930.97 337.01,932.51 335.25,934.05 333.50,935.58 331.76,937.10 330.01,938.61 328.27,940.11 326.53,941.60 324.80,943.09 323.07,944.57 321.34,946.04 319.62,947.50 317.89,948.96 316.17,950.40 314.46,951.84 312.75,953.27 311.04,954.70 309.33,956.11 307.63,957.52 305.93,958.92 304.23,960.31 302.54,961.70 300.85,963.08 299.16,964.45 297.47,965.81 295.79,967.17 294.12,968.52 292.44,969.86 290.77,971.19 289.10,972.52 287.44,973.84 285.77,975.15 284.11,976.45 282.46,977.75 280.81,979.04 279.16,980.33 277.51,981.60 275.87,982.87 274.23,984.14 272.59,985.39 270.96,986.64 269.32,987.89 267.70,989.12 266.07,990.35 264.45,991.58 262.83,992.79 261.22,994.00 259.61,995.20 258.00,996.40 256.39,997.59 254.79,998.77 253.19,999.95 251.60,1001.12 250.00,1002.29 248.41,1003.45 246.83,1004.60 245.96,1005.23" type="driving"/>
    <lane id="-1_1" index="1" disallow="pedestrian tram rail_urban rail rail_electric rail_fast ship" speed="22.22" length="139.74" width="3.75" shape="352.08,914.03 350.41,915.54 348.64,917.15 346.86,918.75 345.09,920.34 343.32,921.92 341.56,923.49 339.80,925.05 338.04,926.61 336.29,928.16 334.54,929.69 332.79,931.23 331.04,932.75 329.30,934.26 327.56,935.77 325.82,937.27 324.09,938.76 322.36,940.24 320.64,941.71 318.91,943.18 317.19,944.64 315.48,946.09 313.76,947.53 312.05,948.97 310.34,950.39 308.64,951.81 306.94,953.22 305.24,954.63 303.55,956.02 301.85,957.41 300.17,958.79 298.48,960.17 296.80,961.54 295.12,962.89 293.44,964.25 291.77,965.59 290.10,966.93 288.43,968.26 286.77,969.58 285.11,970.89 283.45,972.20 281.80,973.50 280.15,974.80 278.50,976.09 276.85,977.37 275.21,978.64 273.58,979.91 271.94,981.16 270.31,982.42 268.68,983.66 267.05,984.90 265.43,986.13 263.81,987.36 262.20,988.58 260.58,989.79 258.97,991.00 257.37,992.20 255.76,993.39 254.16,994.58 252.57,995.76 250.97,996.93 249.38,998.10 247.79,999.26 246.21,1000.41 244.63,1001.56 243.76,1002.19" type="driving"/>
    <lane id="-1_2" index="2" disallow="pedestrian tram rail_urban rail rail_electric rail_fast ship" speed="22.22" length="139.74" width="3.75" shape="349.56,911.25 347.89,912.76 346.12,914.36 344.35,915.96 342.59,917.54 340.83,919.12 339.07,920.69 337.31,922.25 335.56,923.80 333.81,925.34 332.06,926.88 330.32,928.40 328.58,929.92 326.84,931.43 325.11,932.93 323.38,934.43 321.65,935.91 319.92,937.39 318.20,938.86 316.49,940.32 314.77,941.78 313.06,943.22 311.35,944.66 309.64,946.09 307.94,947.51 306.24,948.93 304.55,950.34 302.85,951.74 301.16,953.13 299.48,954.51 297.79,955.89 296.11,957.26 294.44,958.62 292.76,959.98 291.09,961.32 289.42,962.66 287.76,964.00 286.10,965.32 284.44,966.64 282.78,967.95 281.13,969.26 279.48,970.56 277.84,971.85 276.19,973.13 274.55,974.40 272.92,975.67 271.28,976.94 269.65,978.19 268.03,979.44 266.40,980.68 264.78,981.92 263.17,983.15 261.55,984.37 259.94,985.58 258.33,986.79 256.73,987.99 255.13,989.19 253.53,990.38 251.93,991.56 250.34,992.74 248.75,993.91 247.16,995.07 245.58,996.23 244.00,997.38 242.43,998.53 241.56,999.15" type="driving"/>
  </edge>
  <edge id="-10" from="10.begin" to="3" priority="1" type="driving" shape="1099.84,844.85,20.00 1098.87,843.42,20.00 1097.90,841.98,20.00 1096.93,840.53,20.00 1095.95,839.07,20.00 1094.97,837.60,20.00 1094.00,836.12,20.00 1093.01,834.62,20.00 1092.03,833.12,20.00 1091.05,831.60,20.00 1090.06,830.08,20.00 1089.07,828.54,20.00 1088.08,827.00,20.00 1087.08,825.44,20.00 1086.08,823.88,20.00 1085.08,822.30,20.00 1084.08,820.71,20.00 1083.07,819.11,20.00 1082.07,817.51,20.00 1081.05,815.89,20.00 1080.04,814.26,20.00 1079.02,812.63,20.00 1078.00,810.98,20.00 1076.98,809.32,20.00 1075.95,807.65,20.00 1074.92,805.98,20.00 1073.89,804.29,20.00 1072.85,802.59,20.00 1071.81,800.89,20.00 1070.77,799.17,20.00 1069.72,797.45,20.00 1068.67,795.71,20.00 1067.62,793.97,20.00 1066.56,792.22,20.00 1065.50,790.45,20.00 1064.43,788.68,20.00 1063.36,786.90,20.00 1062.29,785.11,20.00 1061.21,783.31,20.00 1060.12,781.50,20.00 1059.04,779.68,20.00 1057.95,777.86,20.00 1056.85,776.02,20.00 1055.75,774.18,20.00 1054.65,772.32,20.00 1053.54,770.46,20.00 1052.42,768.59,20.00 1051.30,766.71,20.00 1050.18,764.82,20.00 1049.05,762.92,20.00">