<?xml version="1.0" encoding="UTF-8"?>
<!--generated on 2022-09-06 07:38:11 by generate_rou.py-->
<routes xmlns:xsi="http://www.w3.org/2001/XMLSchema-instance" xsi:noNamespaceSchemaLocation="http://sumo.dlr.de/xsd/routes_file.xsd">
    <vTypeDistribution id="fastlane">
        <vType accel="3.000000" decel="3.000000" emergencyDecel="15" id="fast1" laneChangeModel="SL2015" lcAccelLat="0.5" lcCooperative="1" lcPushy="0" lcSigma="0.1" lcTimeToImpatience="1.2" length="4.3" maxSpeed="30.00" maxSpeedLat="1" minGap="2.5" minGapLat="1" sigma="0" speedFactor="normc(1,0.1,0.30,3.00)" tau="5" vClass="passenger" width="2.2"/>
        <vType accel="5.000000" decel="5.000000" emergencyDecel="15" id="fast2" laneChangeModel="SL2015" lcAccelLat="0.5" lcCooperative="1" lcPushy="0" lcSigma="0.2" lcTimeToImpatience="1.2" length="4.3" maxSpeed="33.0000" maxSpeedLat="1" minGap="2.5" minGapLat="1" sigma="0" speedFactor="normc(1,0.1,0.30,3.0)" tau="5" vClass="passenger" width="2.2"/>
    </vTypeDistribution>
    <vTypeDistribution id="middlelane">
        <vType accel="5.000000" decel="5.000000" emergencyDecel="15" id="middle_backup" laneChangeModel="SL2015" lcAccelLat="0.5" lcCooperative="1" lcPushy="0" lcSigma="0.2" lcTimeToImpatience="1.2" length="4.3" maxSpeed="26.00" maxSpeedLat="1" minGap="2.5" minGapLat="1" sigma="0" speedFactor="normc(1,0.1,0.30,2.00)" tau="5" vClass="passenger" width="2.2"/>
        <vType accel="5.000000" decel="5.000000" emergencyDecel="15" id="middle1" laneChangeModel="SL2015" lcCooperative="0" lcSpeedGain="0" length="4.3" maxSpeed="26.00" minGap="2.5" sigma="0" tau="5" vClass="passenger" width="2.2"/>
        <vType accel="5.000000" decel="5.000000" emergencyDecel="15" id="middle2" laneChangeModel="SL2015" lcAccelLat="0.5" lcCooperative="1" lcPushy="0" lcSigma="0" lcTimeToImpatience="1.2" length="9.6" maxSpeed="28.00" maxSpeedLat="1" minGap="2.5" minGapLat="1" sigma="0" speedFactor="normc(1,0.1,0.30,2.00)" tau="5" vClass="truck" width="3"/>
    </vTypeDistribution>
    <vTypeDistribution id="slowlane">
        <vType accel="5.000000" decel="5.000000" emergencyDecel="15" id="slow1" laneChangeModel="SL2015" lcAccelLat="0.5" lcCooperative="1" lcPushy="0" lcSigma="0.1" lcTimeToImpatience="1.2" length="4.3" maxSpeed="22.00" maxSpeedLat="1" minGap="2.0" minGapLat="1" sigma="0" speedFactor="normc(1,0.1,0.30,2.00)" tau="5" vClass="passenger" width="2.2"/>
        <vType accel="3.000000" decel="3.000000" emergencyDecel="15" id="slow2" laneChangeModel="SL2015" lcAccelLat="0.5" lcCooperative="1" lcPushy="0" lcSigma="0" lcTimeToImpatience="1.2" length="17.5" maxSpeed="20.00" maxSpeedLat="1" minGap="2.5" minGapLat="1" sigma="0" speedFactor="normc(1,0.1,0.20,3.00)" tau="5" vClass="truck" width="2.8"/>
    </vTypeDistribution>
    <flow begin="0" color="0.37,0.82,0.77" departLane="random" departPos="0" departSpeed="0" id="-0_-13" probability="0.05" type="middle1">
        <route edges="-0 -23 -24 -25 -13"/>
    </flow>
    <flow begin="0" color="0.78,0.81,0.22" departLane="random" departPos="0" departSpeed="0" id="-0_-18" probability="0.05" type="middle1">
        <route edges="-0 -23 -26 -27 -18"/>
    </flow>
    <flow begin="0" color="0.5,0.27,0.1" departLane="random" departPos="0" departSpeed="0" id="-0_-3" probability="0.05" type="middle1">
        <route edges="-0 -1 -2 -3"/>
    </flow>
    <flow begin="0" color="0.68,0.9,0.67" departLane="random" departPos="0" departSpeed="0" id="-14_-18" probability="0.05" type="middle1">
        <route edges="-14 -15 -16 -17 -18"/>
    </flow>
    <flow begin="0" color="0.63,0.94,0.93" departLane="random" departPos="0" departSpeed="0" id="-14_-3" probability="0.05" type="middle1">
        <route edges="-14 -19 -20 -3"/>
    </flow>
    <flow begin="0" color="0.84,0.75,0.98" departLane="random" departPos="0" departSpeed="0" id="-14_-8" probability="0.05" type="middle1">
        <route edges="-14 -15 -16 -30 -31 -6 -7 -8"/>
    </flow>
    <flow begin="0" color="0.34,0.13,0.9" departLane="random" departPos="0" departSpeed="0" id="-4_-13" probability="0.05" type="middle1">
        <route edges="-4 -28 -29 -12 -13"/>
    </flow>
    <flow begin="0" color="0.63,0.19,0.59" departLane="random" departPos="0" departSpeed="0" id="-4_-8" probability="0.05" type="middle1">
        <route edges="-4 -5 -6 -7 -8"/>
    </flow>
    <flow begin="0" color="0.85,0.6,0.28" departLane="random" departPos="0" departSpeed="0" id="-9_-13" probability="0.05" type="middle1">
        <route edges="-9 -10 -11 -12 -13"/>
    </flow>
    <flow begin="0" color="0.3,0.3,0.42" departLane="random" departPos="0" departSpeed="0" id="-9_-8" probability="0.05" type="middle1">
        <route edges="-9 -21 -22 -8"/>
    </flow>
</routes>
