<?xml version="1.0" encoding="UTF-8"?><!--generated on 2022-09-02 05:00:48 by generate_rou.py--><routes xmlns:xsi="http://www.w3.org/2001/XMLSchema-instance" xsi:noNamespaceSchemaLocation="http://sumo.dlr.de/xsd/routes_file.xsd">
    <vTypeDistribution id="fastlane">
        <vType accel="3.000000" decel="3.000000" emergencyDecel="15" id="fast1" laneChangeModel="SL2015" lcAccelLat="0.5" lcCooperative="1" lcPushy="0" lcSigma="0.1" lcTimeToImpatience="1.2" length="4.3" maxSpeed="30.00" maxSpeedLat="1" minGap="2.5" minGapLat="1" sigma="0" speedFactor="normc(1,0.1,0.30,3.00)" tau="5" vClass="passenger" width="2.2"/>
        <vType accel="5.000000" decel="5.000000" emergencyDecel="15" id="fast2" laneChangeModel="SL2015" lcAccelLat="0.5" lcCooperative="1" lcPushy="0" lcSigma="0.2" lcTimeToImpatience="1.2" length="4.3" maxSpeed="33.0000" maxSpeedLat="1" minGap="2.5" minGapLat="1" sigma="0" speedFactor="normc(1,0.1,0.30,3.0)" tau="5" vClass="passenger" width="2.2"/>
    </vTypeDistribution>
    <vTypeDistribution id="middlelane">
        <vType accel="5.000000" decel="5.000000" emergencyDecel="15" id="middle_backup" laneChangeModel="SL2015" lcAccelLat="0.5" lcCooperative="1" lcPushy="0" lcSigma="0.2" lcTimeToImpatience="1.2" length="4.3" maxSpeed="26.00" maxSpeedLat="1" minGap="2.5" minGapLat="1" sigma="0" speedFactor="normc(1,0.1,0.30,2.00)" tau="5" vClass="passenger" width="2.2"/>
        <vType accel="5.000000" decel="5.000000" emergencyDecel="15" id="middle1" laneChangeModel="SL2015" lcCooperative="0" lcSpeedGain="0" length="4.3" maxSpeed="26.00" minGap="2.5" sigma="0" tau="5" vClass="passenger" width="2.2"/>
        <vType accel="5.000000" decel="5.000000" emergencyDecel="15" id="middle2" laneChangeModel="SL2015" lcAccelLat="0.5" lcCooperative="1" lcPushy="0" lcSigma="0" lcTimeToImpatience="1.2" length="9.6" maxSpeed="28.00" maxSpeedLat="1" minGap="2.5" minGapLat="1" sigma="0" speedFactor="normc(1,0.1,0.30,2.00)" tau="5" vClass="truck" width="3"/>
    </vTypeDistribution>
    <vTypeDistribution id="slowlane">
        <vType accel="5.000000" decel="5.000000" emergencyDecel="15" id="slow1" laneChangeModel="SL2015" lcAccelLat="0.5" lcCooperative="1" lcPushy="0" lcSigma="0.1" lcTimeToImpatience="1.2" length="4.3" maxSpeed="22.00" maxSpeedLat="1" minGap="2.0" minGapLat="1" sigma="0" speedFactor="normc(1,0.1,0.30,2.00)" tau="5" vClass="passenger" width="2.2"/>
        <vType accel="3.000000" decel="3.000000" emergencyDecel="15" id="slow2" laneChangeModel="SL2015" lcAccelLat="0.5" lcCooperative="1" lcPushy="0" lcSigma="0" lcTimeToImpatience="1.2" length="17.5" maxSpeed="20.00" maxSpeedLat="1" minGap="2.5" minGapLat="1" sigma="0" speedFactor="normc(1,0.1,0.20,3.00)" tau="5" vClass="truck" width="2.8"/>
    </vTypeDistribution>
    <flow begin="0" color="0.08,0.93,0.55" departLane="0" departPos="0" departSpeed="0" id="-0_-14" type="middle1" vehsPerHour="900">
        <route edges="-0 -30 -31 -14"/>
    </flow>
    <flow begin="0" color="0.77,0.67,0.36" departLane="0" departPos="0" departSpeed="0" id="-0_-19" type="middle1" vehsPerHour="900">
        <route edges="-0 -1 -2 -36 -37 -17 -18 -19"/>
    </flow>
    <flow begin="0" color="0.52,0.34,0.53" departLane="2" departPos="0" departSpeed="0" id="-0_-4" type="middle1" vehsPerHour="900">
        <route edges="-0 -1 -2 -3 -4"/>
    </flow>
    <flow begin="0" color="0.84,0.91,0.82" departLane="2" departPos="0" departSpeed="0" id="-10_-14" type="middle1" vehsPerHour="900">
        <route edges="-10 -11 -12 -13 -14"/>
    </flow>
    <flow begin="0" color="0.05,0.22,0.14" departLane="0" departPos="0" departSpeed="0" id="-10_-4" type="middle1" vehsPerHour="900">
        <route edges="-10 -26 -32 -33 -23 -4"/>
    </flow>
    <flow begin="0" color="0.42,0.42,0.91" departLane="0" departPos="0" departSpeed="0" id="-10_-9" type="middle1" vehsPerHour="900">
        <route edges="-10 -26 -27 -28 -29 -9"/>
    </flow>
    <flow begin="0" color="0.14,0.55,0.11" departLane="2" departPos="0" departSpeed="0" id="-15_-19" type="middle1" vehsPerHour="900">
        <route edges="-15 -16 -17 -18 -19"/>
    </flow>
    <flow begin="0" color="0.18,0.19,0.72" departLane="0" departPos="0" departSpeed="0" id="-15_-4" type="middle1" vehsPerHour="900">
        <route edges="-15 -20 -21 -22 -23 -4"/>
    </flow>
    <flow begin="0" color="0.68,0.77,0.24" departLane="0" departPos="0" departSpeed="0" id="-15_-9" type="middle1" vehsPerHour="900">
        <route edges="-15 -20 -34 -35 -29 -9"/>
    </flow>
    <flow begin="0" color="0.23,0.19,0.09" departLane="0" departPos="0" departSpeed="0" id="-5_-14" type="middle1" vehsPerHour="900">
        <route edges="-5 -6 -7 -38 -39 -12 -13 -14"/>
    </flow>
    <flow begin="0" color="0.77,0.99,0.62" departLane="0" departPos="0" departSpeed="0" id="-5_-19" type="middle1" vehsPerHour="900">
        <route edges="-5 -24 -25 -19"/>
    </flow>
    <flow begin="0" color="0.09,0.74,0.82" departLane="2" departPos="0" departSpeed="0" id="-5_-9" type="middle1" vehsPerHour="900">
        <route edges="-5 -6 -7 -8 -9"/>
    </flow>
</routes>