<?xml version='1.0' encoding='UTF-8'?>
<!-- generated on 2022-09-06 02:17:09 by Eclipse SUMO netconvert Version 1.13.0
<configuration xmlns:xsi="http://www.w3.org/2001/XMLSchema-instance" xsi:noNamespaceSchemaLocation="http://sumo.dlr.de/xsd/netconvertConfiguration.xsd">

    <input>
        <opendrive-files value="map\8\35553323\35553323.xodr"/>
    </input>

    <output>
        <output-file value="C:\Users\LinGe\AppData\Local\Temp\tmpq7tvkve1\35553323.net.xml"/>
    </output>

    <processing>
        <geometry.max-grade.fix value="false"/>
    </processing>

    <tls_building>
        <tls.left-green.time value="0"/>
    </tls_building>

    <junctions>
        <rectangular-lane-cut value="true"/>
    </junctions>

    <report>
        <aggregate-warnings value="5"/>
    </report>

</configuration>
-->
<net xmlns:xsi="http://www.w3.org/2001/XMLSchema-instance" version="1.9" junctionCornerDetail="5" rectangularLaneCut="true" limitTurnSpeed="5.50" xsi:noNamespaceSchemaLocation="http://sumo.dlr.de/xsd/net_file.xsd">
  <location netOffset="301.35,-14.61" convBoundary="0.00,0.00,1102.85,1186.87" origBoundary="-301.35,14.61,801.51,1201.48" projParameter="!"/>
  <type id="bidirectional" priority="1" speed="1.39" disallow="pedestrian tram rail_urban rail rail_electric rail_fast ship" width="3.65"/>
  <type id="border" priority="0" speed="1.39" disallow="all" discard="1" width="0.10"/>
  <type id="driving" priority="1" speed="13.89" disallow="pedestrian tram rail_urban rail rail_electric rail_fast ship" width="3.65"/>
  <type id="entry" priority="1" speed="22.22" disallow="pedestrian tram rail_urban rail rail_electric rail_fast ship" width="3.65"/>
  <type id="exit" priority="1" speed="22.22" disallow="pedestrian tram rail_urban rail rail_electric rail_fast ship" width="3.65"/>
  <type id="median" priority="0" speed="1.39" disallow="all" discard="1" width="0.10"/>
  <type id="mwyEntry" priority="1" speed="22.22" allow="private emergency authority army vip passenger hov taxi bus coach delivery truck trailer motorcycle evehicle custom1 custom2" width="3.65"/>
  <type id="mwyExit" priority="1" speed="22.22" allow="private emergency authority army vip passenger hov taxi bus coach delivery truck trailer motorcycle evehicle custom1 custom2" width="3.65"/>
  <type id="none" priority="0" speed="1.39" disallow="all" discard="1" width="1.00"/>
  <type id="offRamp" priority="1" speed="22.22" allow="private emergency authority army vip passenger hov taxi bus coach delivery truck trailer motorcycle evehicle custom1 custom2" width="3.65"/>
  <type id="onRamp" priority="1" speed="22.22" allow="private emergency authority army vip passenger hov taxi bus coach delivery truck trailer motorcycle evehicle custom1 custom2" width="3.65"/>
  <type id="parking" priority="1" speed="1.39" disallow="pedestrian tram rail_urban rail rail_electric rail_fast ship" width="2.50"/>
  <type id="rail" priority="3" speed="33.33" allow="rail_urban rail rail_electric rail_fast" width="3.65"/>
  <type id="restricted" priority="0" speed="13.89" disallow="all" width="3.65"/>
  <type id="roadWorks" priority="0" speed="1.39" allow="authority" width="3.65"/>
  <type id="shoulder" priority="0" speed="1.39" disallow="all" discard="1" width="1.00"/>
  <type id="special1" priority="1" speed="22.22" allow="custom1" discard="1" width="3.65"/>
  <type id="special2" priority="1" speed="22.22" allow="custom2" discard="1" width="3.65"/>
  <type id="special3" priority="1" speed="22.22" allow="custom1 custom2" discard="1" width="3.65"/>
  <type id="stop" priority="1" speed="13.89" disallow="pedestrian tram rail_urban rail rail_electric rail_fast ship" width="3.65"/>
  <type id="tram" priority="2" speed="13.89" allow="tram" width="3.65"/>
  <edge id=":0_0" function="internal">
    <lane id=":0_0_0" index="0" disallow="pedestrian tram rail_urban rail rail_electric rail_fast ship" speed="19.44" length="104.66" width="3.75" shape="50.33,1096.66 108.05,1009.36"/>
  </edge>
  <edge id=":0_1" function="internal">
    <lane id=":0_1_0" index="0" disallow="pedestrian tram rail_urban rail rail_electric rail_fast ship" speed="22.22" length="105.22" width="3.75" shape="50.33,1096.66 62.15,1079.65 80.76,1053.53 99.57,1027.57 112.00,1011.00"/>
    <lane id=":0_1_1" index="1" disallow="pedestrian tram rail_urban rail rail_electric rail_fast ship" speed="22.22" length="105.22" width="3.75" shape="53.45,1098.74 65.24,1081.77 83.79,1055.75 102.53,1029.87 114.93,1013.35"/>
    <lane id=":0_1_2" index="2" disallow="pedestrian tram rail_urban rail rail_electric rail_fast ship" speed="22.22" length="105.22" width="3.75" shape="56.57,1100.81 68.33,1083.89 86.81,1057.96 105.48,1032.18 117.85,1015.70"/>
  </edge>
  <edge id=":1_0" function="internal">
    <lane id=":1_0_0" index="0" disallow="pedestrian tram rail_urban rail rail_electric rail_fast ship" speed="15.28" length="8.01" width="3.75" shape="541.45,678.33 548.12,673.89,0.00"/>
  </edge>
  <edge id=":1.0_0" function="internal">
    <lane id=":1.0_0_0" index="0" disallow="pedestrian tram rail_urban rail rail_electric rail_fast ship" speed="22.22" length="0.30" width="3.75" shape="246.52,902.68 246.31,902.87"/>
    <lane id=":1.0_0_1" index="1" disallow="pedestrian tram rail_urban rail rail_electric rail_fast ship" speed="22.22" length="0.30" width="3.75" shape="244.00,899.90 243.78,900.10"/>
    <lane id=":1.0_0_2" index="2" disallow="pedestrian tram rail_urban rail rail_electric rail_fast ship" speed="22.22" length="0.30" width="3.75" shape="241.48,897.12 241.26,897.33"/>
  </edge>
  <edge id=":12.11_0" function="internal">
    <lane id=":12.11_0_0" index="0" disallow="pedestrian tram rail_urban rail rail_electric rail_fast ship" speed="22.22" length="0.30" width="3.75" shape="810.07,491.37,20.00 809.88,491.15,20.00"/>
    <lane id=":12.11_0_1" index="1" disallow="pedestrian tram rail_urban rail rail_electric rail_fast ship" speed="22.22" length="0.30" width="3.75" shape="812.89,488.90,20.00 812.70,488.68,20.00"/>
    <lane id=":12.11_0_2" index="2" disallow="pedestrian tram rail_urban rail rail_electric rail_fast ship" speed="22.22" length="0.30" width="3.75" shape="815.72,486.44,20.00 815.52,486.21,20.00"/>
  </edge>
  <edge id=":15.14_0" function="internal">
    <lane id=":15.14_0_0" index="0" disallow="pedestrian tram rail_urban rail rail_electric rail_fast ship" speed="11.11" length="0.30" width="3.75" shape="672.68,551.44,13.83 672.41,551.56,13.82"/>
  </edge>
  <edge id=":17.16_0" function="internal">
    <lane id=":17.16_0_0" index="0" disallow="pedestrian tram rail_urban rail rail_electric rail_fast ship" speed="16.67" length="0.30" width="3.75" shape="343.96,583.84,11.22 344.07,583.56,11.23"/>
  </edge>
  <edge id=":19.18_0" function="internal">
    <lane id=":19.18_0_0" index="0" disallow="pedestrian tram rail_urban rail rail_electric rail_fast ship" speed="16.67" length="0.30" width="3.75" shape="837.18,358.33,10.16 837.23,358.62,10.15"/>
  </edge>
  <edge id=":2_0" function="internal">
    <lane id=":2_0_0" index="0" disallow="pedestrian tram rail_urban rail rail_electric rail_fast ship" speed="19.44" length="23.79" width="3.75" shape="472.74,135.18,20.00 478.99,140.09,19.99 484.54,143.33,19.98 489.34,145.38,19.98 493.33,146.70,19.97"/>
  </edge>
  <edge id=":2_1" function="internal">
    <lane id=":2_1_0" index="0" disallow="pedestrian tram rail_urban rail rail_electric rail_fast ship" speed="22.22" length="24.12" width="3.75" shape="472.74,135.18,20.00 490.71,151.27,20.00"/>
    <lane id=":2_1_1" index="1" disallow="pedestrian tram rail_urban rail rail_electric rail_fast ship" speed="22.22" length="24.12" width="3.75" shape="470.24,137.97,20.00 488.21,154.06,20.00"/>
    <lane id=":2_1_2" index="2" disallow="pedestrian tram rail_urban rail rail_electric rail_fast ship" speed="22.22" length="24.12" width="3.75" shape="467.74,140.77,20.00 485.71,156.86,20.00"/>
  </edge>
  <edge id=":21.20_0" function="internal">
    <lane id=":21.20_0_0" index="0" disallow="pedestrian tram rail_urban rail rail_electric rail_fast ship" speed="8.33" length="0.30" width="3.75" shape="1048.55,163.67,10.14 1048.68,163.40,10.15"/>
  </edge>
  <edge id=":3_0" function="internal">
    <lane id=":3_0_0" index="0" disallow="pedestrian tram rail_urban rail rail_electric rail_fast ship" speed="16.67" length="57.99" width="3.75" shape="991.58,736.96,20.00 983.06,725.01,19.96 972.03,710.71,19.90 961.92,698.06,19.85 956.12,691.10,19.83"/>
  </edge>
  <edge id=":3_1" function="internal">
    <lane id=":3_1_0" index="0" disallow="pedestrian tram rail_urban rail rail_electric rail_fast ship" speed="22.22" length="58.04" width="3.75" shape="991.58,736.96,20.00 959.59,688.60,20.00"/>
    <lane id=":3_1_1" index="1" disallow="pedestrian tram rail_urban rail rail_electric rail_fast ship" speed="22.22" length="58.04" width="3.75" shape="994.72,734.91,20.00 962.70,686.51,20.00"/>
    <lane id=":3_1_2" index="2" disallow="pedestrian tram rail_urban rail rail_electric rail_fast ship" speed="22.22" length="58.04" width="3.75" shape="997.86,732.87,20.00 965.81,684.41,20.00"/>
  </edge>
  <edge id=":4_0" function="internal">
    <lane id=":4_0_0" index="0" disallow="pedestrian tram rail_urban rail rail_electric rail_fast ship" speed="16.67" length="8.06" width="3.75" shape="55.12,1130.34,0.00 50.63,1137.03"/>
  </edge>
  <edge id=":4_1" function="internal">
    <lane id=":4_1_0" index="0" disallow="pedestrian tram rail_urban rail rail_electric rail_fast ship" speed="22.22" length="8.01" width="3.75" shape="55.09,1130.36 50.63,1137.03"/>
    <lane id=":4_1_1" index="1" disallow="pedestrian tram rail_urban rail rail_electric rail_fast ship" speed="22.22" length="8.01" width="3.75" shape="51.97,1128.28 47.52,1134.93"/>
    <lane id=":4_1_2" index="2" disallow="pedestrian tram rail_urban rail rail_electric rail_fast ship" speed="22.22" length="8.01" width="3.75" shape="48.86,1126.19 44.41,1132.84"/>
  </edge>
  <edge id=":5_0" function="internal">
    <lane id=":5_0_0" index="0" disallow="pedestrian tram rail_urban rail rail_electric rail_fast ship" speed="15.92" length="20.17" width="3.75" shape="452.66,157.43,19.98 452.04,153.51,19.98 450.77,149.23,19.99 448.26,144.65,19.99 443.89,139.82,20.00"/>
  </edge>
  <edge id=":5_1" function="internal">
    <lane id=":5_1_0" index="0" disallow="pedestrian tram rail_urban rail rail_electric rail_fast ship" speed="22.22" length="18.28" width="3.75" shape="457.50,152.03,20.00 443.89,139.82,20.00"/>
    <lane id=":5_1_1" index="1" disallow="pedestrian tram rail_urban rail rail_electric rail_fast ship" speed="22.22" length="18.28" width="3.75" shape="460.01,149.24,20.00 446.40,137.03,20.00"/>
    <lane id=":5_1_2" index="2" disallow="pedestrian tram rail_urban rail rail_electric rail_fast ship" speed="22.22" length="18.28" width="3.75" shape="462.51,146.45,20.00 448.91,134.24,20.00"/>
  </edge>
  <edge id=":5.4_0" function="internal">
    <lane id=":5.4_0_0" index="0" disallow="pedestrian tram rail_urban rail rail_electric rail_fast ship" speed="22.22" length="0.30" width="3.75" shape="231.00,886.05 231.23,885.84"/>
    <lane id=":5.4_0_1" index="1" disallow="pedestrian tram rail_urban rail rail_electric rail_fast ship" speed="22.22" length="0.30" width="3.75" shape="233.52,888.82 233.75,888.62"/>
    <lane id=":5.4_0_2" index="2" disallow="pedestrian tram rail_urban rail rail_electric rail_fast ship" speed="22.22" length="0.30" width="3.75" shape="236.05,891.59 236.27,891.39"/>
  </edge>
  <edge id=":6_0" function="internal">
    <lane id=":6_0_0" index="0" disallow="pedestrian tram rail_urban rail rail_electric rail_fast ship" speed="19.44" length="8.09" width="3.75" shape="561.28,692.47,0.00 554.51,696.91"/>
  </edge>
  <edge id=":7_0" function="internal">
    <lane id=":7_0_0" index="0" disallow="pedestrian tram rail_urban rail rail_electric rail_fast ship" speed="10.17" length="16.47" width="3.75" shape="713.14,343.06,19.99 711.72,347.71,20.00 711.51,351.83,20.00 712.52,355.41,20.00 714.74,358.46,20.00"/>
  </edge>
  <edge id=":7_1" function="internal">
    <lane id=":7_1_0" index="0" disallow="pedestrian tram rail_urban rail rail_electric rail_fast ship" speed="22.22" length="13.74" width="3.75" shape="704.91,348.83,20.00 714.74,358.46,20.00"/>
    <lane id=":7_1_1" index="1" disallow="pedestrian tram rail_urban rail rail_electric rail_fast ship" speed="22.22" length="13.74" width="3.75" shape="702.29,351.52,20.00 712.11,361.13,20.00"/>
    <lane id=":7_1_2" index="2" disallow="pedestrian tram rail_urban rail rail_electric rail_fast ship" speed="22.22" length="13.74" width="3.75" shape="699.67,354.20,20.00 709.48,363.81,20.00"/>
  </edge>
  <edge id=":9.8_0" function="internal">
    <lane id=":9.8_0_0" index="0" disallow="pedestrian tram rail_urban rail rail_electric rail_fast ship" speed="22.22" length="0.30" width="3.75" shape="826.99,476.17,20.00 827.20,476.40,20.00"/>
    <lane id=":9.8_0_1" index="1" disallow="pedestrian tram rail_urban rail rail_electric rail_fast ship" speed="22.22" length="0.30" width="3.75" shape="824.17,478.64,20.00 824.37,478.86,20.00"/>
    <lane id=":9.8_0_2" index="2" disallow="pedestrian tram rail_urban rail rail_electric rail_fast ship" speed="22.22" length="0.30" width="3.75" shape="821.35,481.11,20.00 821.55,481.33,20.00"/>
  </edge>
  <edge id="-0" from="6" to="1.0" priority="1" type="driving" shape="552.69,686.87 551.37,687.75 550.05,688.62 548.73,689.49 547.41,690.35 546.10,691.21 544.78,692.06 543.46,692.90 542.14,693.74 540.82,694.58 539.50,695.40 538.18,696.23 536.86,697.05 535.54,697.87 534.22,698.68 532.89,699.48 531.57,700.29 530.25,701.09 528.92,701.88 527.60,702.67 526.27,703.46 524.95,704.24 523.62,705.02 522.29,705.80 520.96,706.58 519.63,707.35 518.30,708.12 516.97,708.88 515.63,709.65 514.29,710.41 512.96,711.17 511.62,711.93 510.28,712.68 508.93,713.43 507.59,714.19 506.24,714.94 504.90,715.68 503.55,716.43 502.20,717.18 500.84,717.92 499.49,718.67 498.13,719.41 496.77,720.15 495.41,720.90 494.04,721.64 492.67,722.38 491.30,723.12 489.93,723.86 488.56,724.60 487.18,725.35 485.80,726.09 484.42,726.83 483.03,727.58 481.64,728.32 480.25,729.07 478.86,729.82 477.46,730.56 476.06,731.31 474.66,732.07 473.25,732.82 471.84,733.57 470.43,734.33 469.01,735.09 467.59,735.85 466.17,736.61 464.74,737.38 463.31,738.15 461.87,738.92 460.43,739.70 458.99,740.47 457.54,741.25 456.09,742.04 454.64,742.82 453.18,743.62 451.72,744.41 450.25,745.21 448.78,746.01 447.30,746.82 445.82,747.63 444.34,748.44 442.85,749.26 441.36,750.09 439.86,750.92 438.36,751.75 436.85,752.59 435.34,753.44 433.82,754.29 432.30,755.14 430.77,756.00 429.24,756.87 427.70,757.74 426.16,758.62 424.61,759.50 423.06,760.40 421.50,761.29 419.94,762.20 418.37,763.11 416.79,764.03 415.21,764.95 413.63,765.88 412.04,766.82 410.44,767.77 408.84,768.72 407.23,769.68 405.61,770.65 403.99,771.63 402.36,772.61 400.73,773.61 399.09,774.61 397.44,775.62 395.79,776.64 394.13,777.67 392.47,778.70 390.80,779.75 389.12,780.80 387.43,781.87 385.74,782.94 384.04,784.02 382.34,785.11 380.63,786.22 378.91,787.33 377.18,788.45 375.45,789.58 373.71,790.73 371.96,791.88 370.21,793.04 368.45,794.22 366.68,795.40 364.90,796.60 363.12,797.81 361.33,799.03 359.53,800.26 357.72,801.50 355.91,802.75 354.08,804.02 352.25,805.30 350.42,806.59 348.57,807.89 346.72,809.20 344.86,810.53 342.98,811.87 341.11,813.22 339.22,814.59 337.33,815.97 335.42,817.36 333.51,818.76 331.59,820.18 329.66,821.61 327.72,823.06 325.78,824.52 323.82,825.99 321.86,827.48 319.89,828.98 317.90,830.50 315.91,832.03 313.91,833.58 311.91,835.14 309.89,836.71 307.86,838.30 305.82,839.91 303.78,841.53 301.72,843.17 299.66,844.82 297.58,846.49 295.50,848.17 293.41,849.87 291.30,851.59 289.19,853.32 287.07,855.07 284.94,856.83 282.79,858.62 280.64,860.42 278.48,862.23 276.31,864.07 274.12,865.92 271.93,867.78 269.72,869.67 267.51,871.57 265.29,873.49 263.05,875.43 260.81,877.39 258.55,879.37 256.28,881.36 254.00,883.37 251.72,885.40 249.42,887.45 247.11,889.52 244.79,891.61 242.45,893.71 240.11,895.84">
    <lane id="-0_0" index="0" disallow="pedestrian tram rail_urban rail rail_electric rail_fast ship" speed="22.22" length="372.16" width="3.75" shape="554.51,696.91 553.87,697.33 552.53,698.21 551.19,699.08 549.84,699.94 548.50,700.80 547.16,701.66 545.82,702.50 544.48,703.35 543.14,704.19 541.80,705.02 540.45,705.85 539.11,706.67 537.77,707.49 536.43,708.31 535.08,709.12 533.74,709.92 532.40,710.73 531.05,711.52 529.71,712.32 528.37,713.11 527.02,713.90 525.67,714.68 524.33,715.46 522.98,716.24 521.63,717.02 520.28,717.79 518.93,718.56 517.58,719.33 516.22,720.09 514.87,720.85 513.52,721.61 512.16,722.37 510.80,723.13 509.44,723.88 508.08,724.64 506.72,725.39 505.36,726.14 503.99,726.89 502.63,727.64 501.26,728.38 499.89,729.13 498.52,729.88 497.14,730.62 495.77,731.37 494.39,732.11 493.01,732.86 491.63,733.60 490.24,734.35 488.86,735.09 487.47,735.84 486.08,736.58 484.68,737.33 483.29,738.08 481.89,738.83 480.49,739.58 479.08,740.33 477.67,741.08 476.27,741.84 474.85,742.59 473.44,743.35 472.02,744.11 470.60,744.88 469.17,745.64 467.74,746.41 466.31,747.18 464.88,747.95 463.44,748.72 462.00,749.50 460.55,750.28 459.11,751.07 457.65,751.85 456.20,752.65 454.74,753.44 453.27,754.24 451.81,755.04 450.33,755.85 448.86,756.66 447.38,757.47 445.89,758.29 444.41,759.12 442.91,759.95 441.42,760.78 439.91,761.62 438.41,762.46 436.90,763.31 435.38,764.17 433.86,765.03 432.34,765.89 430.81,766.76 429.27,767.64 427.73,768.52 426.19,769.41 424.64,770.31 423.08,771.21 421.52,772.12 419.96,773.04 418.38,773.96 416.81,774.89 415.22,775.83 413.64,776.77 412.04,777.73 410.44,778.69 408.84,779.65 407.23,780.63 405.61,781.61 403.99,782.60 402.36,783.60 400.72,784.61 399.08,785.63 397.43,786.66 395.78,787.69 394.12,788.73 392.45,789.79 390.77,790.85 389.09,791.92 387.41,793.00 385.71,794.09 384.01,795.19 382.30,796.30 380.59,797.43 378.87,798.56 377.14,799.70 375.40,800.85 373.66,802.01 371.91,803.19 370.15,804.37 368.38,805.57 366.61,806.77 364.83,807.99 363.04,809.22 361.25,810.46 359.44,811.71 357.63,812.98 355.81,814.26 353.98,815.54 352.15,816.85 350.31,818.16 348.45,819.49 346.59,820.82 344.73,822.18 342.85,823.54 340.96,824.92 339.07,826.31 337.17,827.72 335.26,829.13 333.34,830.57 331.41,832.01 329.47,833.47 327.53,834.95 325.57,836.43 323.61,837.94 321.64,839.45 319.66,840.99 317.67,842.53 315.67,844.09 313.66,845.67 311.64,847.26 309.61,848.87 307.57,850.49 305.53,852.13 303.47,853.79 301.40,855.46 299.33,857.14 297.24,858.84 295.14,860.56 293.04,862.30 290.92,864.05 288.80,865.82 286.66,867.60 284.52,869.40 282.36,871.22 280.19,873.06 278.02,874.91 275.83,876.79 273.63,878.68 271.42,880.58 269.20,882.51 266.97,884.45 264.73,886.41 262.48,888.39 260.22,890.39 257.95,892.41 255.66,894.44 253.37,896.50 251.06,898.57 248.74,900.66 246.52,902.68" type="driving"/>
    <lane id="-0_1" index="1" disallow="pedestrian tram rail_urban rail rail_electric rail_fast ship" speed="22.22" length="372.16" width="3.75" shape="552.45,693.78 551.82,694.19 550.48,695.06 549.15,695.93 547.82,696.79 546.48,697.64 545.15,698.49 543.82,699.33 542.49,700.17 541.15,701.00 539.82,701.83 538.49,702.66 537.15,703.47 535.82,704.29 534.49,705.10 533.15,705.90 531.81,706.71 530.48,707.50 529.14,708.30 527.81,709.09 526.47,709.88 525.13,710.66 523.79,711.44 522.45,712.22 521.11,712.99 519.76,713.76 518.42,714.53 517.08,715.30 515.73,716.06 514.38,716.82 513.03,717.58 511.68,718.34 510.33,719.10 508.98,719.85 507.62,720.60 506.27,721.35 504.91,722.10 503.55,722.85 502.19,723.60 500.83,724.35 499.46,725.09 498.09,725.84 496.73,726.58 495.35,727.32 493.98,728.07 492.61,728.81 491.23,729.56 489.85,730.30 488.47,731.04 487.08,731.79 485.69,732.53 484.30,733.28 482.91,734.03 481.51,734.77 480.12,735.52 478.72,736.27 477.31,737.02 475.91,737.78 474.50,738.53 473.08,739.29 471.67,740.05 470.25,740.81 468.82,741.57 467.40,742.34 465.97,743.10 464.54,743.87 463.10,744.65 461.66,745.42 460.22,746.20 458.77,746.98 457.32,747.77 455.86,748.56 454.41,749.35 452.94,750.15 451.48,750.95 450.01,751.75 448.53,752.56 447.05,753.37 445.57,754.19 444.08,755.01 442.59,755.84 441.09,756.67 439.59,757.50 438.08,758.35 436.57,759.19 435.06,760.04 433.54,760.90 432.01,761.76 430.48,762.63 428.95,763.51 427.41,764.39 425.86,765.27 424.31,766.17 422.76,767.06 421.20,767.97 419.63,768.88 418.06,769.80 416.48,770.73 414.90,771.66 413.31,772.60 411.72,773.55 410.12,774.51 408.51,775.47 406.90,776.44 405.28,777.42 403.66,778.41 402.03,779.41 400.39,780.41 398.75,781.42 397.10,782.44 395.45,783.47 393.78,784.51 392.12,785.56 390.44,786.62 388.76,787.69 387.07,788.76 385.38,789.85 383.68,790.94 381.97,792.05 380.26,793.16 378.53,794.29 376.80,795.42 375.07,796.57 373.32,797.73 371.57,798.89 369.82,800.07 368.05,801.26 366.28,802.46 364.50,803.67 362.71,804.90 360.91,806.13 359.11,807.38 357.30,808.64 355.48,809.91 353.65,811.19 351.82,812.48 349.98,813.79 348.13,815.11 346.27,816.44 344.40,817.78 342.52,819.14 340.64,820.51 338.75,821.90 336.85,823.29 334.94,824.70 333.02,826.13 331.09,827.56 329.16,829.02 327.21,830.48 325.26,831.96 323.30,833.45 321.33,834.96 319.35,836.48 317.36,838.02 315.36,839.57 313.36,841.14 311.34,842.72 309.31,844.32 307.28,845.93 305.23,847.56 303.18,849.21 301.12,850.87 299.04,852.54 296.96,854.23 294.87,855.94 292.76,857.67 290.65,859.41 288.53,861.16 286.40,862.94 284.25,864.73 282.10,866.54 279.94,868.36 277.76,870.20 275.58,872.06 273.39,873.94 271.18,875.83 268.97,877.75 266.74,879.68 264.51,881.63 262.26,883.59 260.00,885.58 257.73,887.58 255.45,889.60 253.16,891.65 250.86,893.71 248.55,895.78 246.23,897.88 244.00,899.90" type="driving"/>
    <lane id="-0_2" index="2" disallow="pedestrian tram rail_urban rail rail_electric rail_fast ship" speed="22.22" length="372.16" width="3.75" shape="550.39,690.64 549.76,691.06 548.44,691.92 547.11,692.78 545.79,693.63 544.47,694.48 543.14,695.32 541.82,696.16 540.49,696.99 539.17,697.82 537.85,698.64 536.52,699.46 535.20,700.28 533.87,701.09 532.54,701.89 531.22,702.69 529.89,703.49 528.56,704.28 527.23,705.07 525.90,705.86 524.57,706.64 523.24,707.42 521.90,708.20 520.57,708.97 519.23,709.74 517.90,710.51 516.56,711.28 515.22,712.04 513.88,712.80 512.54,713.56 511.20,714.31 509.85,715.07 508.50,715.82 507.16,716.57 505.81,717.32 504.45,718.07 503.10,718.82 501.74,719.57 500.39,720.31 499.03,721.06 497.67,721.80 496.30,722.54 494.94,723.28 493.57,724.03 492.20,724.77 490.82,725.51 489.45,726.25 488.07,727.00 486.69,727.74 485.31,728.48 483.92,729.23 482.53,729.97 481.14,730.72 479.74,731.47 478.35,732.22 476.95,732.97 475.54,733.72 474.14,734.47 472.73,735.23 471.31,735.98 469.90,736.74 468.48,737.50 467.05,738.27 465.62,739.03 464.19,739.80 462.76,740.57 461.32,741.35 459.88,742.12 458.44,742.90 456.99,743.69 455.53,744.47 454.08,745.26 452.61,746.06 451.15,746.86 449.68,747.66 448.20,748.46 446.73,749.27 445.24,750.09 443.76,750.91 442.27,751.73 440.77,752.56 439.27,753.39 437.76,754.23 436.25,755.07 434.74,755.92 433.22,756.78 431.69,757.63 430.16,758.50 428.63,759.37 427.09,760.25 425.54,761.13 423.99,762.02 422.44,762.92 420.88,763.82 419.31,764.73 417.74,765.65 416.16,766.57 414.58,767.50 412.99,768.44 411.40,769.38 409.80,770.33 408.19,771.29 406.58,772.26 404.96,773.23 403.34,774.22 401.71,775.21 400.07,776.21 398.43,777.22 396.78,778.23 395.12,779.26 393.46,780.29 391.79,781.34 390.12,782.39 388.44,783.45 386.75,784.52 385.05,785.60 383.35,786.69 381.64,787.79 379.93,788.90 378.21,790.02 376.48,791.15 374.74,792.29 373.00,793.44 371.25,794.61 369.49,795.78 367.72,796.96 365.95,798.15 364.17,799.36 362.38,800.58 360.59,801.80 358.79,803.04 356.97,804.30 355.16,805.56 353.33,806.83 351.50,808.12 349.65,809.42 347.80,810.73 345.95,812.06 344.08,813.39 342.20,814.74 340.32,816.11 338.43,817.48 336.53,818.87 334.62,820.27 332.71,821.69 330.78,823.12 328.85,824.56 326.90,826.02 324.95,827.49 322.99,828.97 321.02,830.47 319.05,831.99 317.06,833.52 315.06,835.06 313.06,836.62 311.04,838.19 309.02,839.78 306.99,841.38 304.95,843.00 302.89,844.63 300.83,846.28 298.76,847.95 296.68,849.63 294.59,851.33 292.49,853.04 290.38,854.77 288.26,856.51 286.13,858.28 283.99,860.06 281.84,861.85 279.69,863.67 277.52,865.50 275.34,867.35 273.15,869.21 270.95,871.09 268.73,872.99 266.51,874.91 264.28,876.85 262.04,878.80 259.79,880.77 257.52,882.77 255.25,884.77 252.96,886.80 250.67,888.85 248.36,890.91 246.04,893.00 243.71,895.10 241.48,897.12" type="driving"/>
  </edge>
  <edge id="-1" from="1.0" to="4" priority="1" type="driving" shape="240.11,895.84 237.93,897.82 235.77,899.80 233.63,901.76 231.51,903.72 229.40,905.68 227.31,907.62 225.23,909.56 223.18,911.48 221.14,913.40 219.11,915.32 217.11,917.22 215.12,919.12 213.14,921.01 211.19,922.89 209.24,924.76 207.32,926.63 205.41,928.49 203.52,930.34 201.64,932.19 199.78,934.02 197.93,935.85 196.10,937.68 194.28,939.49 192.48,941.30 190.69,943.10 188.92,944.90 187.17,946.68 185.42,948.46 183.70,950.24 181.98,952.00 180.28,953.76 178.60,955.51 176.93,957.26 175.27,959.00 173.63,960.73 172.00,962.46 170.38,964.17 168.78,965.89 167.19,967.59 165.62,969.29 164.06,970.98 162.51,972.67 160.97,974.35 159.45,976.02 157.94,977.68 156.44,979.34 154.96,981.00 153.48,982.65 152.02,984.29 150.57,985.92 149.14,987.55 147.71,989.17 146.30,990.79 144.90,992.40 143.51,994.01 142.13,995.60 140.76,997.20 139.41,998.78 138.06,1000.37 136.73,1001.94 135.41,1003.51 134.10,1005.07 132.79,1006.63 131.50,1008.18 130.22,1009.73 128.95,1011.27 127.69,1012.81 126.44,1014.34 125.21,1015.86 123.98,1017.38 122.76,1018.90 121.55,1020.41 120.34,1021.91 119.15,1023.41 117.97,1024.90 116.80,1026.39 115.63,1027.87 114.48,1029.35 113.33,1030.82 112.20,1032.29 111.07,1033.75 109.95,1035.21 108.84,1036.66 107.73,1038.11 106.64,1039.55 105.55,1040.99 104.47,1042.42 103.40,1043.85 102.34,1045.28 101.28,1046.70 100.23,1048.11 99.19,1049.52 98.16,1050.93 97.13,1052.33 96.11,1053.73 95.10,1055.12 94.09,1056.51 93.09,1057.89 92.10,1059.27 91.11,1060.65 90.13,1062.02 89.16,1063.38 88.19,1064.75 87.23,1066.10 86.27,1067.46 85.32,1068.81 84.38,1070.16 83.44,1071.50 82.50,1072.84 81.58,1074.17 80.65,1075.50 79.73,1076.83 78.82,1078.15 77.91,1079.47 77.01,1080.79 76.11,1082.10 75.22,1083.41 74.33,1084.72 73.44,1086.02 72.56,1087.32 71.68,1088.61 70.81,1089.90 69.94,1091.19 69.08,1092.48 68.21,1093.76 67.36,1095.04 66.50,1096.31 65.65,1097.58 64.80,1098.85 63.95,1100.12 63.11,1101.38 62.27,1102.64 61.43,1103.90 60.60,1105.15 59.77,1106.40 58.94,1107.65 58.11,1108.89 57.28,1110.14 56.46,1111.38 55.64,1112.61 54.82,1113.85 54.00,1115.08 53.18,1116.31 52.37,1117.54 51.56,1118.76 50.74,1119.98 49.93,1121.20 49.12,1122.42 48.31,1123.63 47.50,1124.84 46.70,1126.05 45.89,1127.26 45.08,1128.47">
    <lane id="-1_0" index="0" disallow="pedestrian tram rail_urban rail rail_electric rail_fast ship" speed="22.22" length="299.07" width="3.75" shape="246.31,902.87 244.25,904.75 242.11,906.71 239.98,908.66 237.87,910.61 235.77,912.55 233.70,914.48 231.64,916.40 229.60,918.32 227.57,920.22 225.56,922.12 223.57,924.01 221.59,925.90 219.63,927.77 217.69,929.64 215.76,931.50 213.85,933.35 211.96,935.20 210.08,937.04 208.22,938.87 206.37,940.69 204.53,942.51 202.72,944.32 200.92,946.12 199.13,947.91 197.36,949.70 195.60,951.48 193.86,953.25 192.13,955.01 190.42,956.77 188.72,958.52 187.03,960.27 185.36,962.00 183.71,963.73 182.07,965.46 180.44,967.17 178.82,968.88 177.22,970.59 175.64,972.28 174.06,973.97 172.50,975.66 170.95,977.33 169.42,979.00 167.90,980.67 166.39,982.32 164.89,983.97 163.41,985.62 161.94,987.26 160.48,988.89 159.03,990.51 157.60,992.13 156.17,993.74 154.76,995.35 153.36,996.95 151.98,998.55 150.60,1000.14 149.24,1001.72 147.88,1003.29 146.54,1004.87 145.21,1006.43 143.89,1007.99 142.58,1009.54 141.28,1011.09 140.00,1012.63 138.72,1014.17 137.45,1015.70 136.20,1017.23 134.95,1018.75 133.71,1020.26 132.49,1021.77 131.27,1023.27 130.06,1024.77 128.86,1026.26 127.68,1027.75 126.50,1029.24 125.33,1030.71 124.17,1032.19 123.02,1033.65 121.87,1035.11 120.74,1036.57 119.61,1038.02 118.50,1039.47 117.39,1040.91 116.29,1042.35 115.19,1043.79 114.11,1045.21 113.03,1046.64 111.97,1048.06 110.91,1049.47 109.85,1050.88 108.81,1052.29 107.77,1053.69 106.74,1055.08 105.71,1056.48 104.70,1057.86 103.69,1059.25 102.68,1060.63 101.68,1062.00 100.69,1063.37 99.71,1064.74 98.73,1066.10 97.76,1067.46 96.80,1068.82 95.84,1070.17 94.88,1071.52 93.93,1072.86 92.99,1074.20 92.06,1075.53 91.12,1076.87 90.20,1078.19 89.28,1079.52 88.36,1080.84 87.45,1082.16 86.54,1083.47 85.64,1084.78 84.74,1086.09 83.85,1087.39 82.96,1088.70 82.08,1089.99 81.20,1091.29 80.32,1092.58 79.45,1093.87 78.58,1095.15 77.71,1096.43 76.85,1097.71 75.99,1098.99 75.14,1100.26 74.29,1101.53 73.44,1102.80 72.59,1104.06 71.75,1105.32 70.91,1106.58 70.07,1107.84 69.24,1109.09 68.40,1110.34 67.57,1111.59 66.74,1112.84 65.92,1114.08 65.09,1115.32 64.27,1116.56 63.45,1117.80 62.63,1119.03 61.81,1120.27 60.99,1121.50 60.18,1122.72 59.36,1123.95 58.55,1125.17 57.74,1126.40 56.92,1127.62 56.11,1128.83 55.30,1130.05 55.09,1130.36" type="driving"/>