<?xml version='1.0' encoding='UTF-8'?>
<!-- generated on 2022-09-25 13:36:46 by Eclipse SUMO netconvert Version 1.13.0
<configuration xmlns:xsi="http://www.w3.org/2001/XMLSchema-instance" xsi:noNamespaceSchemaLocation="http://sumo.dlr.de/xsd/netconvertConfiguration.xsd">

    <input>
        <opendrive-files value="map_new_new\20\69\69.xodr"/>
    </input>

    <output>
        <output-file value="C:\Users\LinGe\AppData\Local\Temp\tmpvmu0rwy8\69.net.xml"/>
    </output>

    <processing>
        <geometry.max-grade.fix value="false"/>
    </processing>

    <tls_building>
        <tls.left-green.time value="0"/>
    </tls_building>

    <junctions>
        <rectangular-lane-cut value="true"/>
    </junctions>

    <report>
        <aggregate-warnings value="5"/>
    </report>

</configuration>
-->
<net xmlns:xsi="http://www.w3.org/2001/XMLSchema-instance" version="1.9" junctionCornerDetail="5" rectangularLaneCut="true" limitTurnSpeed="5.50" xsi:noNamespaceSchemaLocation="http://sumo.dlr.de/xsd/net_file.xsd">
  <location netOffset="1.56,101.26" convBoundary="0.00,0.00,1102.73,1302.51" origBoundary="-1.56,-101.26,1101.18,1201.26" projParameter="!"/>
  <type id="bidirectional" priority="1" speed="1.39" disallow="pedestrian tram rail_urban rail rail_electric rail_fast ship" width="3.65"/>
  <type id="border" priority="0" speed="1.39" disallow="all" discard="1" width="0.10"/>
  <type id="driving" priority="1" speed="13.89" disallow="pedestrian tram rail_urban rail rail_electric rail_fast ship" width="3.65"/>
  <type id="entry" priority="1" speed="22.22" disallow="pedestrian tram rail_urban rail rail_electric rail_fast ship" width="3.65"/>
  <type id="exit" priority="1" speed="22.22" disallow="pedestrian tram rail_urban rail rail_electric rail_fast ship" width="3.65"/>
  <type id="median" priority="0" speed="1.39" disallow="all" discard="1" width="0.10"/>
  <type id="mwyEntry" priority="1" speed="22.22" allow="private emergency authority army vip passenger hov taxi bus coach delivery truck trailer motorcycle evehicle custom1 custom2" width="3.65"/>
  <type id="mwyExit" priority="1" speed="22.22" allow="private emergency authority army vip passenger hov taxi bus coach delivery truck trailer motorcycle evehicle custom1 custom2" width="3.65"/>
  <type id="none" priority="0" speed="1.39" disallow="all" discard="1" width="1.00"/>
  <type id="offRamp" priority="1" speed="22.22" allow="private emergency authority army vip passenger hov taxi bus coach delivery truck trailer motorcycle evehicle custom1 custom2" width="3.65"/>
  <type id="onRamp" priority="1" speed="22.22" allow="private emergency authority army vip passenger hov taxi bus coach delivery truck trailer motorcycle evehicle custom1 custom2" width="3.65"/>
  <type id="parking" priority="1" speed="1.39" disallow="pedestrian tram rail_urban rail rail_electric rail_fast ship" width="2.50"/>
  <type id="rail" priority="3" speed="33.33" allow="rail_urban rail rail_electric rail_fast" width="3.65"/>
  <type id="restricted" priority="0" speed="13.89" disallow="all" width="3.65"/>
  <type id="roadWorks" priority="0" speed="1.39" allow="authority" width="3.65"/>
  <type id="shoulder" priority="0" speed="1.39" disallow="all" discard="1" width="1.00"/>
  <type id="special1" priority="1" speed="22.22" allow="custom1" discard="1" width="3.65"/>
  <type id="special2" priority="1" speed="22.22" allow="custom2" discard="1" width="3.65"/>
  <type id="special3" priority="1" speed="22.22" allow="custom1 custom2" discard="1" width="3.65"/>
  <type id="stop" priority="1" speed="13.89" disallow="pedestrian tram rail_urban rail rail_electric rail_fast ship" width="3.65"/>
  <type id="tram" priority="2" speed="13.89" allow="tram" width="3.65"/>
  <edge id=":0_0" function="internal">
    <lane id=":0_0_0" index="0" disallow="pedestrian tram rail_urban rail rail_electric rail_fast ship" speed="20.83" length="63.99" width="3.75" shape="989.88,316.99 978.69,327.88 964.66,342.31 952.12,355.58 945.39,362.97"/>
  </edge>
  <edge id=":0_1" function="internal">
    <lane id=":0_1_0" index="0" disallow="pedestrian tram rail_urban rail rail_electric rail_fast ship" speed="22.22" length="64.16" width="3.75" shape="989.88,316.99 942.27,360.01"/>
    <lane id=":0_1_1" index="1" disallow="pedestrian tram rail_urban rail rail_electric rail_fast ship" speed="22.22" length="64.16" width="3.75" shape="987.36,314.21 939.76,357.23"/>
    <lane id=":0_1_2" index="2" disallow="pedestrian tram rail_urban rail rail_electric rail_fast ship" speed="22.22" length="64.16" width="3.75" shape="984.85,311.43 937.25,354.44"/>
  </edge>
  <edge id=":1_0" function="internal">
    <lane id=":1_0_0" index="0" disallow="pedestrian tram rail_urban rail rail_electric rail_fast ship" speed="15.97" length="35.95" width="3.75" shape="91.28,937.13 100.78,931.17,0.04 109.21,924.95,0.07 115.87,919.46,0.10 120.07,915.72,0.12"/>
  </edge>
  <edge id=":1_1" function="internal">
    <lane id=":1_1_0" index="0" disallow="pedestrian tram rail_urban rail rail_electric rail_fast ship" speed="22.22" length="36.13" width="3.75" shape="91.28,937.13 122.79,919.47"/>
    <lane id=":1_1_1" index="1" disallow="pedestrian tram rail_urban rail rail_electric rail_fast ship" speed="22.22" length="36.13" width="3.75" shape="93.12,940.41 124.63,922.74"/>
    <lane id=":1_1_2" index="2" disallow="pedestrian tram rail_urban rail rail_electric rail_fast ship" speed="22.22" length="36.13" width="3.75" shape="94.95,943.68 126.46,926.01"/>
  </edge>
  <edge id=":10_0" function="internal">
    <lane id=":10_0_0" index="0" disallow="pedestrian tram rail_urban rail rail_electric rail_fast ship" speed="20.83" length="40.53" width="3.75" shape="882.53,1098.25,19.83 885.93,1103.61,19.86 891.70,1112.01,19.90 898.92,1121.66,19.95 906.67,1130.74,20.00"/>
  </edge>
  <edge id=":10_1" function="internal">
    <lane id=":10_1_0" index="0" disallow="pedestrian tram rail_urban rail rail_electric rail_fast ship" speed="22.22" length="39.92" width="3.75" shape="879.30,1101.69,20.00 906.67,1130.74,20.00"/>
    <lane id=":10_1_1" index="1" disallow="pedestrian tram rail_urban rail rail_electric rail_fast ship" speed="22.22" length="39.92" width="3.75" shape="876.57,1104.26,20.00 903.94,1133.31,20.00"/>
    <lane id=":10_1_2" index="2" disallow="pedestrian tram rail_urban rail rail_electric rail_fast ship" speed="22.22" length="39.92" width="3.75" shape="873.84,1106.83,20.00 901.21,1135.88,20.00"/>
  </edge>
  <edge id=":11_0" function="internal">
    <lane id=":11_0_0" index="0" disallow="pedestrian tram rail_urban rail rail_electric rail_fast ship" speed="19.44" length="3.00" width="3.75" shape="837.27,624.80,7.77 836.78,627.76,7.85"/>
  </edge>
  <edge id=":11_1" function="internal">
    <lane id=":11_1_0" index="0" disallow="pedestrian tram rail_urban rail rail_electric rail_fast ship" speed="20.83" length="3.00" width="3.75" shape="837.27,624.80,7.77 836.78,627.76,7.81"/>
  </edge>
  <edge id=":12_0" function="internal">
    <lane id=":12_0_0" index="0" disallow="pedestrian tram rail_urban rail rail_electric rail_fast ship" speed="15.97" length="35.34" width="3.75" shape="659.88,569.71,0.00 664.85,567.25,0.00 672.24,563.22,0.00 680.95,557.79,0.00 689.84,551.12"/>
  </edge>
  <edge id=":12_1" function="internal">
    <lane id=":12_1_0" index="0" disallow="pedestrian tram rail_urban rail rail_electric rail_fast ship" speed="22.22" length="34.67" width="3.75" shape="663.23,573.29 689.84,551.12"/>
    <lane id=":12_1_1" index="1" disallow="pedestrian tram rail_urban rail rail_electric rail_fast ship" speed="22.22" length="34.67" width="3.75" shape="665.61,576.18 692.26,554.00"/>
    <lane id=":12_1_2" index="2" disallow="pedestrian tram rail_urban rail rail_electric rail_fast ship" speed="22.22" length="34.67" width="3.75" shape="668.00,579.07 694.67,556.87"/>
  </edge>
  <edge id=":12.11_0" function="internal">
    <lane id=":12.11_0_0" index="0" disallow="pedestrian tram rail_urban rail rail_electric rail_fast ship" speed="22.22" length="0.30" width="3.75" shape="446.34,625.82,20.00 446.53,626.05,20.00"/>
    <lane id=":12.11_0_1" index="1" disallow="pedestrian tram rail_urban rail rail_electric rail_fast ship" speed="22.22" length="0.30" width="3.75" shape="443.42,628.17,20.00 443.61,628.41,20.00"/>
    <lane id=":12.11_0_2" index="2" disallow="pedestrian tram rail_urban rail rail_electric rail_fast ship" speed="22.22" length="0.30" width="3.75" shape="440.51,630.53,20.00 440.70,630.76,20.00"/>
  </edge>
  <edge id=":13_0" function="internal">
    <lane id=":13_0_0" index="0" disallow="pedestrian tram rail_urban rail rail_electric rail_fast ship" speed="12.36" length="18.71" width="3.75" shape="725.04,924.29,19.99 724.49,929.24,19.99 725.05,933.79,20.00 726.71,937.95,20.00 729.48,941.71,20.00"/>
  </edge>
  <edge id=":13_1" function="internal">
    <lane id=":13_1_0" index="0" disallow="pedestrian tram rail_urban rail rail_electric rail_fast ship" speed="22.22" length="16.42" width="3.75" shape="718.30,929.68,20.00 729.48,941.71,20.00"/>
    <lane id=":13_1_1" index="1" disallow="pedestrian tram rail_urban rail rail_electric rail_fast ship" speed="22.22" length="16.42" width="3.75" shape="715.55,932.23,20.00 726.73,944.26,20.00"/>
    <lane id=":13_1_2" index="2" disallow="pedestrian tram rail_urban rail rail_electric rail_fast ship" speed="22.22" length="16.42" width="3.75" shape="712.80,934.79,20.00 723.98,946.82,20.00"/>
  </edge>
  <edge id=":14_0" function="internal">
    <lane id=":14_0_0" index="0" disallow="pedestrian tram rail_urban rail rail_electric rail_fast ship" speed="16.67" length="33.21" width="3.75" shape="505.43,725.80 500.41,727.23 493.19,729.85 484.50,733.76 475.11,739.07"/>
  </edge>
  <edge id=":14_1" function="internal">
    <lane id=":14_1_0" index="0" disallow="pedestrian tram rail_urban rail rail_electric rail_fast ship" speed="22.22" length="32.29" width="3.75" shape="502.27,721.53 475.11,739.07"/>
    <lane id=":14_1_1" index="1" disallow="pedestrian tram rail_urban rail rail_electric rail_fast ship" speed="22.22" length="32.29" width="3.75" shape="500.22,718.39 473.09,735.91"/>
    <lane id=":14_1_2" index="2" disallow="pedestrian tram rail_urban rail rail_electric rail_fast ship" speed="22.22" length="32.29" width="3.75" shape="498.16,715.25 471.08,732.74"/>
  </edge>
  <edge id=":15_0" function="internal">
    <lane id=":15_0_0" index="0" disallow="pedestrian tram rail_urban rail rail_electric rail_fast ship" speed="13.43" length="18.15" width="3.75" shape="155.29,267.16,20.00 156.14,262.12,20.00 156.08,257.52,20.00 155.11,253.36,20.00 153.23,249.64,20.00"/>
  </edge>
  <edge id=":15_1" function="internal">
    <lane id=":15_1_0" index="0" disallow="pedestrian tram rail_urban rail rail_electric rail_fast ship" speed="22.22" length="16.05" width="3.75" shape="162.15,262.99,20.00 153.23,249.64,20.00"/>
    <lane id=":15_1_1" index="1" disallow="pedestrian tram rail_urban rail rail_electric rail_fast ship" speed="22.22" length="16.05" width="3.75" shape="165.27,260.90,20.00 156.34,247.56,20.00"/>
    <lane id=":15_1_2" index="2" disallow="pedestrian tram rail_urban rail rail_electric rail_fast ship" speed="22.22" length="16.05" width="3.75" shape="168.38,258.82,20.00 159.46,245.48,20.00"/>
  </edge>
  <edge id=":17.16_0" function="internal">
    <lane id=":17.16_0_0" index="0" disallow="pedestrian tram rail_urban rail rail_electric rail_fast ship" speed="22.22" length="0.30" width="3.75" shape="428.83,640.35,20.00 428.64,640.11,20.00"/>
    <lane id=":17.16_0_1" index="1" disallow="pedestrian tram rail_urban rail rail_electric rail_fast ship" speed="22.22" length="0.30" width="3.75" shape="431.75,637.99,20.00 431.56,637.76,20.00"/>
    <lane id=":17.16_0_2" index="2" disallow="pedestrian tram rail_urban rail rail_electric rail_fast ship" speed="22.22" length="0.30" width="3.75" shape="434.66,635.63,20.00 434.48,635.40,20.00"/>
  </edge>
  <edge id=":2_0" function="internal">
    <lane id=":2_0_0" index="0" disallow="pedestrian tram rail_urban rail rail_electric rail_fast ship" speed="16.67" length="40.36" width="3.75" shape="208.28,290.92,20.00 215.39,300.48,19.96 223.14,309.63,19.92 230.00,317.09,19.88 234.44,321.59,19.86"/>
  </edge>
  <edge id=":2_1" function="internal">
    <lane id=":2_1_0" index="0" disallow="pedestrian tram rail_urban rail rail_electric rail_fast ship" speed="22.22" length="40.53" width="3.75" shape="208.28,290.92,20.00 230.95,324.51,20.00"/>
    <lane id=":2_1_1" index="1" disallow="pedestrian tram rail_urban rail rail_electric rail_fast ship" speed="22.22" length="40.53" width="3.75" shape="205.16,293.01,20.00 227.84,326.61,20.00"/>
    <lane id=":2_1_2" index="2" disallow="pedestrian tram rail_urban rail rail_electric rail_fast ship" speed="22.22" length="40.53" width="3.75" shape="202.05,295.11,20.00 224.73,328.72,20.00"/>
  </edge>
  <edge id=":2.1_0" function="internal">
    <lane id=":2.1_0_0" index="0" disallow="pedestrian tram rail_urban rail rail_electric rail_fast ship" speed="22.22" length="0.30" width="3.75" shape="572.96,673.04 572.71,673.22"/>
    <lane id=":2.1_0_1" index="1" disallow="pedestrian tram rail_urban rail rail_electric rail_fast ship" speed="22.22" length="0.30" width="3.75" shape="570.75,670.01 570.51,670.19"/>
    <lane id=":2.1_0_2" index="2" disallow="pedestrian tram rail_urban rail rail_electric rail_fast ship" speed="22.22" length="0.30" width="3.75" shape="568.55,666.98 568.31,667.15"/>
  </edge>
  <edge id=":22.21_0" function="internal">
    <lane id=":22.21_0_0" index="0" disallow="pedestrian tram rail_urban rail rail_electric rail_fast ship" speed="22.22" length="0.30" width="3.75" shape="500.83,1011.65,8.37 500.55,1011.55,8.36"/>
  </edge>
  <edge id=":25.24_0" function="internal">
    <lane id=":25.24_0_0" index="0" disallow="pedestrian tram rail_urban rail rail_electric rail_fast ship" speed="9.72" length="0.29" width="3.75" shape="293.45,640.63,8.98 293.47,640.34,8.99"/>
  </edge>
  <edge id=":28.27_0" function="internal">
    <lane id=":28.27_0_0" index="0" disallow="pedestrian tram rail_urban rail rail_electric rail_fast ship" speed="11.11" length="0.30" width="3.75" shape="510.03,471.29,10.65 510.32,471.33,10.64"/>
  </edge>
  <edge id=":3_0" function="internal">
    <lane id=":3_0_0" index="0" disallow="pedestrian tram rail_urban rail rail_electric rail_fast ship" speed="22.22" length="98.15" width="3.75" shape="968.50,1229.39,20.00 953.70,1214.55,20.00 930.90,1192.29,20.00 909.33,1171.46,20.00 898.21,1160.90,20.00"/>
  </edge>
  <edge id=":3_1" function="internal">
    <lane id=":3_1_0" index="0" disallow="pedestrian tram rail_urban rail rail_electric rail_fast ship" speed="22.22" length="98.25" width="3.75" shape="968.50,1229.39,20.00 901.06,1157.94,20.00"/>
    <lane id=":3_1_1" index="1" disallow="pedestrian tram rail_urban rail rail_electric rail_fast ship" speed="22.22" length="98.25" width="3.75" shape="971.23,1226.82,20.00 903.79,1155.36,20.00"/>
    <lane id=":3_1_2" index="2" disallow="pedestrian tram rail_urban rail rail_electric rail_fast ship" speed="22.22" length="98.25" width="3.75" shape="973.95,1224.24,20.00 906.52,1152.79,20.00"/>
  </edge>
  <edge id=":31.30_0" function="internal">
    <lane id=":31.30_0_0" index="0" disallow="pedestrian tram rail_urban rail rail_electric rail_fast ship" speed="19.44" length="0.30" width="3.75" shape="815.44,824.75,12.59 815.41,825.05,12.60"/>
  </edge>
  <edge id=":33.32_0" function="internal">
    <lane id=":33.32_0_0" index="0" disallow="pedestrian tram rail_urban rail rail_electric rail_fast ship" speed="9.72" length="0.30" width="3.75" shape="627.72,699.54,4.41 627.71,699.24,4.40"/>
  </edge>
  <edge id=":35.34_0" function="internal">
    <lane id=":35.34_0_0" index="0" disallow="pedestrian tram rail_urban rail rail_electric rail_fast ship" speed="16.67" length="0.30" width="3.75" shape="710.11,445.21,13.61 710.37,445.36,13.61"/>
  </edge>
  <edge id=":37.36_0" function="internal">
    <lane id=":37.36_0_0" index="0" disallow="pedestrian tram rail_urban rail rail_electric rail_fast ship" speed="11.11" length="0.30" width="3.75" shape="545.68,650.46,4.53 545.68,650.76,4.51"/>
  </edge>
  <edge id=":39.38_0" function="internal">
    <lane id=":39.38_0_0" index="0" disallow="pedestrian tram rail_urban rail rail_electric rail_fast ship" speed="22.22" length="0.30" width="3.75" shape="218.25,1038.45,13.89 217.99,1038.30,13.89"/>
  </edge>
  <edge id=":4_0" function="internal">
    <lane id=":4_0_0" index="0" disallow="pedestrian tram rail_urban rail rail_electric rail_fast ship" speed="22.22" length="28.24" width="3.75" shape="157.92,932.15,0.06 153.38,932.79,0.05 147.30,934.13,0.04 139.87,936.63,0.02 131.23,940.79"/>
  </edge>
  <edge id=":4_1" function="internal">
    <lane id=":4_1_0" index="0" disallow="pedestrian tram rail_urban rail rail_electric rail_fast ship" speed="22.22" length="27.15" width="3.75" shape="154.91,927.50 131.23,940.79"/>
    <lane id=":4_1_1" index="1" disallow="pedestrian tram rail_urban rail rail_electric rail_fast ship" speed="22.22" length="27.15" width="3.75" shape="153.08,924.23 129.40,937.52"/>
    <lane id=":4_1_2" index="2" disallow="pedestrian tram rail_urban rail rail_electric rail_fast ship" speed="22.22" length="27.15" width="3.75" shape="151.24,920.96 127.57,934.25"/>
  </edge>
  <edge id=":5_0" function="internal">
    <lane id=":5_0_0" index="0" disallow="pedestrian tram rail_urban rail rail_electric rail_fast ship" speed="22.22" length="30.42" width="3.75" shape="717.28,1054.05,14.54 687.84,1046.40,14.50"/>
  </edge>
  <edge id=":5_1" function="internal">
    <lane id=":5_1_0" index="0" disallow="pedestrian tram rail_urban rail rail_electric rail_fast ship" speed="15.97" length="31.06" width="3.75" shape="717.28,1054.05,14.54 711.39,1051.92,14.52 702.78,1048.47,14.48 694.26,1044.83,14.45 688.61,1042.14,14.42"/>
  </edge>
  <edge id=":6_0" function="internal">
    <lane id=":6_0_0" index="0" disallow="pedestrian tram rail_urban rail rail_electric rail_fast ship" speed="15.97" length="8.01" width="3.75" shape="142.93,234.23,20.00 138.49,227.56,20.00"/>
  </edge>
  <edge id=":6_1" function="internal">
    <lane id=":6_1_0" index="0" disallow="pedestrian tram rail_urban rail rail_electric rail_fast ship" speed="22.22" length="8.00" width="3.75" shape="142.93,234.22,20.00 138.49,227.56,20.00"/>
    <lane id=":6_1_1" index="1" disallow="pedestrian tram rail_urban rail rail_electric rail_fast ship" speed="22.22" length="8.00" width="3.75" shape="146.05,232.14,20.00 141.61,225.48,20.00"/>
    <lane id=":6_1_2" index="2" disallow="pedestrian tram rail_urban rail rail_electric rail_fast ship" speed="22.22" length="8.00" width="3.75" shape="149.17,230.06,20.00 144.73,223.40,20.00"/>
  </edge>
  <edge id=":7_0" function="internal">
    <lane id=":7_0_0" index="0" disallow="pedestrian tram rail_urban rail rail_electric rail_fast ship" speed="9.72" length="2.99" width="3.75" shape="276.84,691.47,7.16 278.08,688.75,7.26"/>
  </edge>
  <edge id=":7_1" function="internal">
    <lane id=":7_1_0" index="0" disallow="pedestrian tram rail_urban rail rail_electric rail_fast ship" speed="13.19" length="3.00" width="3.75" shape="276.84,691.47,7.16 278.09,688.74,7.21"/>
  </edge>
  <edge id=":7.6_0" function="internal">
    <lane id=":7.6_0_0" index="0" disallow="pedestrian tram rail_urban rail rail_electric rail_fast ship" speed="22.22" length="0.30" width="3.75" shape="559.34,654.82 559.58,654.64"/>
    <lane id=":7.6_0_1" index="1" disallow="pedestrian tram rail_urban rail rail_electric rail_fast ship" speed="22.22" length="0.30" width="3.75" shape="561.54,657.85 561.78,657.68"/>
    <lane id=":7.6_0_2" index="2" disallow="pedestrian tram rail_urban rail rail_electric rail_fast ship" speed="22.22" length="0.30" width="3.75" shape="563.74,660.89 563.99,660.71"/>
  </edge>
  <edge id=":8_0" function="internal">
    <lane id=":8_0_0" index="0" disallow="pedestrian tram rail_urban rail rail_electric rail_fast ship" speed="16.67" length="88.50" width="3.75" shape="813.31,438.99,0.00 824.23,430.51,0.00 845.10,413.89,0.00 867.29,395.93,0.00 882.19,383.43"/>
  </edge>
  <edge id=":8_1" function="internal">
    <lane id=":8_1_0" index="0" disallow="pedestrian tram rail_urban rail rail_electric rail_fast ship" speed="22.22" length="88.23" width="3.75" shape="816.26,442.02 882.19,383.43"/>
    <lane id=":8_1_1" index="1" disallow="pedestrian tram rail_urban rail rail_electric rail_fast ship" speed="22.22" length="88.23" width="3.75" shape="818.74,444.83 884.69,386.22"/>
    <lane id=":8_1_2" index="2" disallow="pedestrian tram rail_urban rail rail_electric rail_fast ship" speed="22.22" length="88.23" width="3.75" shape="821.22,447.65 887.19,389.02"/>
  </edge>
  <edge id=":9_0" function="internal">
    <lane id=":9_0_0" index="0" disallow="pedestrian tram rail_urban rail rail_electric rail_fast ship" speed="11.11" length="19.54" width="3.75" shape="476.52,462.16,12.06 495.14,468.06,12.00"/>
  </edge>
  <edge id=":9_1" function="internal">
    <lane id=":9_1_0" index="0" disallow="pedestrian tram rail_urban rail rail_electric rail_fast ship" speed="11.11" length="20.71" width="3.75" shape="476.52,462.16,12.06 480.76,464.05,12.03 485.76,466.83,11.99 490.55,469.94,11.95 494.18,472.82,11.91"/>
  </edge>
  <edge id="-0" from="0.begin" to="0" priority="1" type="driving" shape="1102.73,202.87 1101.88,203.61 1101.02,204.36 1100.13,205.13 1099.23,205.91 1098.31,206.72 1097.37,207.54 1096.42,208.37 1095.44,209.23 1094.45,210.10 1093.45,210.99 1092.42,211.89 1091.38,212.81 1090.32,213.75 1089.25,214.70 1088.15,215.67 1087.04,216.65 1085.92,217.65 1084.78,218.66 1083.62,219.70 1082.44,220.74 1081.25,221.80 1080.05,222.88 1078.83,223.97 1077.59,225.08 1076.33,226.20 1075.07,227.34 1073.78,228.49 1072.48,229.65 1071.17,230.83 1069.84,232.03 1068.49,233.24 1067.13,234.46 1065.76,235.69 1064.37,236.94 1062.97,238.21 1061.55,239.48 1060.11,240.78 1058.67,242.08 1057.21,243.40 1055.73,244.73 1054.24,246.07 1052.74,247.43 1051.23,248.80 1049.70,250.18 1048.15,251.57 1046.60,252.98 1045.03,254.40 1043.44,255.83 1041.85,257.27 1040.24,258.73 1038.62,260.20 1036.98,261.67 1035.34,263.16 1033.68,264.67 1032.01,266.18 1030.32,267.71 1028.63,269.24 1026.92,270.79 1025.20,272.35 1023.47,273.92 1021.72,275.50 1019.97,277.09 1018.20,278.69 1016.42,280.30 1014.63,281.92 1012.83,283.55 1011.02,285.19 1009.20,286.84 1007.37,288.51 1005.52,290.18 1003.67,291.86 1001.80,293.55 999.93,295.25 998.04,296.96 996.14,298.67 994.24,300.40 992.32,302.14 990.40,303.88 988.46,305.63 986.51,307.40 984.56,309.17 982.59,310.95 980.62,312.73">
    <lane id="-0_0" index="0" disallow="pedestrian tram rail_urban rail rail_electric rail_fast ship" speed="22.22" length="160.13" width="3.75" shape="1108.87,209.96 1108.02,210.69 1107.16,211.44 1106.29,212.20 1105.39,212.98 1104.48,213.78 1103.55,214.59 1102.60,215.42 1101.63,216.27 1100.65,217.14 1099.64,218.02 1098.62,218.92 1097.59,219.84 1096.53,220.77 1095.46,221.72 1094.37,222.68 1093.27,223.66 1092.15,224.66 1091.01,225.67 1089.85,226.70 1088.68,227.74 1087.50,228.80 1086.29,229.87 1085.07,230.96 1083.84,232.07 1082.59,233.19 1081.32,234.32 1080.04,235.47 1078.74,236.63 1077.43,237.81 1076.10,239.00 1074.76,240.21 1073.40,241.43 1072.03,242.66 1070.64,243.91 1069.24,245.17 1067.82,246.45 1066.39,247.74 1064.95,249.04 1063.49,250.36 1062.01,251.69 1060.53,253.03 1059.02,254.38 1057.51,255.75 1055.98,257.13 1054.44,258.53 1052.88,259.93 1051.31,261.35 1049.73,262.78 1048.14,264.23 1046.53,265.68 1044.91,267.15 1043.27,268.62 1041.63,270.12 1039.97,271.62 1038.30,273.13 1036.61,274.65 1034.92,276.19 1033.21,277.74 1031.49,279.29 1029.76,280.86 1028.02,282.44 1026.26,284.03 1024.50,285.63 1022.72,287.24 1020.93,288.87 1019.13,290.50 1017.32,292.14 1015.49,293.79 1013.66,295.45 1011.82,297.12 1009.96,298.80 1008.10,300.49 1006.22,302.19 1004.33,303.90 1002.44,305.62 1000.53,307.35 998.62,309.08 996.69,310.83 994.75,312.58 992.81,314.35 990.85,316.12 989.88,316.99" type="driving"/>
    <lane id="-0_1" index="1" disallow="pedestrian tram rail_urban rail rail_electric rail_fast ship" speed="22.22" length="160.13" width="3.75" shape="1106.41,207.13 1105.57,207.86 1104.71,208.61 1103.83,209.37 1102.93,210.15 1102.01,210.95 1101.08,211.77 1100.13,212.60 1099.16,213.46 1098.17,214.32 1097.16,215.21 1096.14,216.11 1095.10,217.03 1094.05,217.96 1092.97,218.91 1091.89,219.87 1090.78,220.86 1089.66,221.85 1088.52,222.87 1087.36,223.90 1086.19,224.94 1085.00,226.00 1083.80,227.08 1082.57,228.17 1081.34,229.27 1080.09,230.39 1078.82,231.53 1077.54,232.68 1076.24,233.84 1074.92,235.02 1073.60,236.21 1072.25,237.42 1070.89,238.64 1069.52,239.88 1068.13,241.12 1066.73,242.39 1065.31,243.66 1063.88,244.95 1062.43,246.26 1060.97,247.57 1059.50,248.90 1058.01,250.25 1056.51,251.60 1055.00,252.97 1053.47,254.35 1051.92,255.75 1050.37,257.15 1048.80,258.57 1047.22,260.00 1045.62,261.44 1044.01,262.90 1042.39,264.37 1040.76,265.84 1039.11,267.33 1037.45,268.84 1035.78,270.35 1034.10,271.87 1032.40,273.41 1030.69,274.96 1028.97,276.52 1027.24,278.08 1025.50,279.66 1023.74,281.25 1021.98,282.85 1020.20,284.47 1018.41,286.09 1016.61,287.72 1014.80,289.36 1012.98,291.01 1011.14,292.67 1009.30,294.34 1007.44,296.03 1005.58,297.72 1003.70,299.42 1001.82,301.12 999.92,302.84 998.01,304.57 996.10,306.31 994.17,308.05 992.24,309.80 990.29,311.57 988.33,313.34 987.36,314.21" type="driving"/>
    <lane id="-0_2" index="2" disallow="pedestrian tram rail_urban rail rail_electric rail_fast ship" speed="22.22" length="160.13" width="3.75" shape="1103.96,204.29 1103.11,205.03 1102.25,205.78 1101.36,206.54 1100.46,207.33 1099.54,208.13 1098.61,208.95 1097.65,209.78 1096.68,210.64 1095.69,211.51 1094.69,212.39 1093.66,213.30 1092.62,214.21 1091.56,215.15 1090.49,216.10 1089.40,217.07 1088.29,218.05 1087.16,219.05 1086.02,220.07 1084.87,221.10 1083.69,222.14 1082.50,223.20 1081.30,224.28 1080.08,225.37 1078.84,226.48 1077.59,227.60 1076.32,228.73 1075.03,229.88 1073.73,231.05 1072.42,232.23 1071.09,233.42 1069.75,234.63 1068.39,235.85 1067.01,237.09 1065.62,238.34 1064.22,239.60 1062.80,240.88 1061.37,242.17 1059.92,243.47 1058.46,244.79 1056.99,246.12 1055.50,247.46 1054.00,248.82 1052.48,250.19 1050.95,251.57 1049.41,252.96 1047.85,254.37 1046.28,255.79 1044.70,257.22 1043.11,258.66 1041.50,260.12 1039.88,261.59 1038.24,263.06 1036.59,264.55 1034.94,266.06 1033.26,267.57 1031.58,269.10 1029.88,270.63 1028.18,272.18 1026.46,273.74 1024.72,275.31 1022.98,276.89 1021.23,278.48 1019.46,280.08 1017.68,281.69 1015.89,283.31 1014.09,284.94 1012.28,286.58 1010.46,288.23 1008.62,289.89 1006.78,291.57 1004.93,293.25 1003.06,294.94 1001.18,296.64 999.30,298.35 997.40,300.06 995.50,301.79 993.58,303.53 991.65,305.27 989.72,307.02 987.77,308.79 985.82,310.56 984.85,311.43" type="driving"/>
  </edge>