<?xml version='1.0' encoding='UTF-8'?>
<!-- generated on 2022-09-02 15:34:16 by Eclipse SUMO netconvert Version 1.13.0
<configuration xmlns:xsi="http://www.w3.org/2001/XMLSchema-instance" xsi:noNamespaceSchemaLocation="http://sumo.dlr.de/xsd/netconvertConfiguration.xsd">

    <input>
        <opendrive-files value="map\classification\19\13617512\13617512.xodr"/>
    </input>

    <output>
        <output-file value="C:\Users\LinGe\AppData\Local\Temp\tmp37u0v3zv\13617512.net.xml"/>
    </output>

    <processing>
        <geometry.max-grade.fix value="false"/>
    </processing>

    <tls_building>
        <tls.left-green.time value="0"/>
    </tls_building>

    <junctions>
        <rectangular-lane-cut value="true"/>
    </junctions>

    <report>
        <aggregate-warnings value="5"/>
    </report>

</configuration>
-->
<net xmlns:xsi="http://www.w3.org/2001/XMLSchema-instance" version="1.9" junctionCornerDetail="5" rectangularLaneCut="true" limitTurnSpeed="5.50" xsi:noNamespaceSchemaLocation="http://sumo.dlr.de/xsd/net_file.xsd">
  <location netOffset="1.56,101.26" convBoundary="0.00,0.00,1102.73,1302.51" origBoundary="-1.56,-101.26,1101.18,1201.26" projParameter="!"/>
  <type id="bidirectional" priority="1" speed="1.39" disallow="pedestrian tram rail_urban rail rail_electric rail_fast ship" width="3.65"/>
  <type id="border" priority="0" speed="1.39" disallow="all" discard="1" width="0.10"/>
  <type id="driving" priority="1" speed="13.89" disallow="pedestrian tram rail_urban rail rail_electric rail_fast ship" width="3.65"/>
  <type id="entry" priority="1" speed="22.22" disallow="pedestrian tram rail_urban rail rail_electric rail_fast ship" width="3.65"/>
  <type id="exit" priority="1" speed="22.22" disallow="pedestrian tram rail_urban rail rail_electric rail_fast ship" width="3.65"/>
  <type id="median" priority="0" speed="1.39" disallow="all" discard="1" width="0.10"/>
  <type id="mwyEntry" priority="1" speed="22.22" allow="private emergency authority army vip passenger hov taxi bus coach delivery truck trailer motorcycle evehicle custom1 custom2" width="3.65"/>
  <type id="mwyExit" priority="1" speed="22.22" allow="private emergency authority army vip passenger hov taxi bus coach delivery truck trailer motorcycle evehicle custom1 custom2" width="3.65"/>
  <type id="none" priority="0" speed="1.39" disallow="all" discard="1" width="1.00"/>
  <type id="offRamp" priority="1" speed="22.22" allow="private emergency authority army vip passenger hov taxi bus coach delivery truck trailer motorcycle evehicle custom1 custom2" width="3.65"/>
  <type id="onRamp" priority="1" speed="22.22" allow="private emergency authority army vip passenger hov taxi bus coach delivery truck trailer motorcycle evehicle custom1 custom2" width="3.65"/>
  <type id="parking" priority="1" speed="1.39" disallow="pedestrian tram rail_urban rail rail_electric rail_fast ship" width="2.50"/>
  <type id="rail" priority="3" speed="33.33" allow="rail_urban rail rail_electric rail_fast" width="3.65"/>
  <type id="restricted" priority="0" speed="13.89" disallow="all" width="3.65"/>
  <type id="roadWorks" priority="0" speed="1.39" allow="authority" width="3.65"/>
  <type id="shoulder" priority="0" speed="1.39" disallow="all" discard="1" width="1.00"/>
  <type id="special1" priority="1" speed="22.22" allow="custom1" discard="1" width="3.65"/>
  <type id="special2" priority="1" speed="22.22" allow="custom2" discard="1" width="3.65"/>
  <type id="special3" priority="1" speed="22.22" allow="custom1 custom2" discard="1" width="3.65"/>
  <type id="stop" priority="1" speed="13.89" disallow="pedestrian tram rail_urban rail rail_electric rail_fast ship" width="3.65"/>
  <type id="tram" priority="2" speed="13.89" allow="tram" width="3.65"/>
  <edge id=":0_0" function="internal">
    <lane id=":0_0_0" index="0" disallow="pedestrian tram rail_urban rail rail_electric rail_fast ship" speed="16.67" length="21.51" width="3.75" shape="1047.88,261.91 1042.83,266.91,0.00 1039.46,271.49,0.00 1037.25,275.64,0.00 1035.71,279.36,0.01"/>
  </edge>
  <edge id=":0_1" function="internal">
    <lane id=":0_1_0" index="0" disallow="pedestrian tram rail_urban rail rail_electric rail_fast ship" speed="22.22" length="21.86" width="3.75" shape="1047.88,261.91 1031.29,276.16"/>
    <lane id=":0_1_1" index="1" disallow="pedestrian tram rail_urban rail rail_electric rail_fast ship" speed="22.22" length="21.86" width="3.75" shape="1045.43,259.07 1028.85,273.32"/>
    <lane id=":0_1_2" index="2" disallow="pedestrian tram rail_urban rail rail_electric rail_fast ship" speed="22.22" length="21.86" width="3.75" shape="1042.99,256.22 1026.41,270.47"/>
  </edge>
  <edge id=":1_0" function="internal">
    <lane id=":1_0_0" index="0" disallow="pedestrian tram rail_urban rail rail_electric rail_fast ship" speed="15.28" length="41.64" width="3.75" shape="102.84,91.36,20.00 111.60,99.72,19.98 121.09,107.75,19.96 129.39,114.32,19.94 134.58,118.25,19.93"/>
  </edge>
  <edge id=":1_1" function="internal">
    <lane id=":1_1_0" index="0" disallow="pedestrian tram rail_urban rail rail_electric rail_fast ship" speed="22.22" length="41.75" width="3.75" shape="102.84,91.36,20.00 131.67,121.55,20.00"/>
    <lane id=":1_1_1" index="1" disallow="pedestrian tram rail_urban rail rail_electric rail_fast ship" speed="22.22" length="41.75" width="3.75" shape="100.12,93.95,20.00 128.96,124.14,20.00"/>
    <lane id=":1_1_2" index="2" disallow="pedestrian tram rail_urban rail rail_electric rail_fast ship" speed="22.22" length="41.75" width="3.75" shape="97.41,96.54,20.00 126.24,126.73,20.00"/>
  </edge>
  <edge id=":13.12_0" function="internal">
    <lane id=":13.12_0_0" index="0" disallow="pedestrian tram rail_urban rail rail_electric rail_fast ship" speed="8.33" length="0.30" width="3.75" shape="588.95,382.99,8.94 589.24,383.05,8.93"/>
  </edge>
  <edge id=":15.14_0" function="internal">
    <lane id=":15.14_0_0" index="0" disallow="pedestrian tram rail_urban rail rail_electric rail_fast ship" speed="11.11" length="0.29" width="3.75" shape="597.99,950.60,9.71 597.70,950.56,9.72"/>
  </edge>
  <edge id=":2_0" function="internal">
    <lane id=":2_0_0" index="0" disallow="pedestrian tram rail_urban rail rail_electric rail_fast ship" speed="15.28" length="92.36" width="3.75" shape="935.32,323.17,0.00 946.80,314.44,0.00 968.93,297.28,0.00 992.42,278.82,0.00 1008.00,266.20"/>
  </edge>
  <edge id=":2_1" function="internal">
    <lane id=":2_1_0" index="0" disallow="pedestrian tram rail_urban rail rail_electric rail_fast ship" speed="22.22" length="92.11" width="3.75" shape="938.15,326.23 1008.00,266.20"/>
    <lane id=":2_1_1" index="1" disallow="pedestrian tram rail_urban rail rail_electric rail_fast ship" speed="22.22" length="92.11" width="3.75" shape="940.59,329.07 1010.45,269.04"/>
    <lane id=":2_1_2" index="2" disallow="pedestrian tram rail_urban rail rail_electric rail_fast ship" speed="22.22" length="92.11" width="3.75" shape="943.04,331.92 1012.89,271.89"/>
  </edge>
  <edge id=":2.1_0" function="internal">
    <lane id=":2.1_0_0" index="0" disallow="pedestrian tram rail_urban rail rail_electric rail_fast ship" speed="22.22" length="0.30" width="3.75" shape="494.73,721.15 494.49,721.33"/>
    <lane id=":2.1_0_1" index="1" disallow="pedestrian tram rail_urban rail rail_electric rail_fast ship" speed="22.22" length="0.30" width="3.75" shape="492.53,718.12 492.28,718.30"/>
    <lane id=":2.1_0_2" index="2" disallow="pedestrian tram rail_urban rail rail_electric rail_fast ship" speed="22.22" length="0.30" width="3.75" shape="490.32,715.09 490.08,715.26"/>
  </edge>
  <edge id=":3_0" function="internal">
    <lane id=":3_0_0" index="0" disallow="pedestrian tram rail_urban rail rail_electric rail_fast ship" speed="16.67" length="30.88" width="3.75" shape="117.49,146.77,19.99 115.22,142.48,19.99 111.77,136.50,19.99 106.84,129.32,20.00 100.08,121.39,20.00"/>
  </edge>
  <edge id=":3_1" function="internal">
    <lane id=":3_1_0" index="0" disallow="pedestrian tram rail_urban rail rail_electric rail_fast ship" speed="22.22" length="30.07" width="3.75" shape="120.85,143.14,20.00 100.08,121.39,20.00"/>
    <lane id=":3_1_1" index="1" disallow="pedestrian tram rail_urban rail rail_electric rail_fast ship" speed="22.22" length="30.07" width="3.75" shape="123.56,140.55,20.00 102.79,118.80,20.00"/>
    <lane id=":3_1_2" index="2" disallow="pedestrian tram rail_urban rail rail_electric rail_fast ship" speed="22.22" length="30.07" width="3.75" shape="126.27,137.96,20.00 105.51,116.21,20.00"/>
  </edge>
  <edge id=":4.3_0" function="internal">
    <lane id=":4.3_0_0" index="0" disallow="pedestrian tram rail_urban rail rail_electric rail_fast ship" speed="22.22" length="0.30" width="3.75" shape="481.11,702.93 481.35,702.75"/>
    <lane id=":4.3_0_1" index="1" disallow="pedestrian tram rail_urban rail rail_electric rail_fast ship" speed="22.22" length="0.30" width="3.75" shape="483.31,705.96 483.56,705.79"/>
    <lane id=":4.3_0_2" index="2" disallow="pedestrian tram rail_urban rail rail_electric rail_fast ship" speed="22.22" length="0.30" width="3.75" shape="485.52,709.00 485.76,708.82"/>
  </edge>
  <edge id=":8.7_0" function="internal">
    <lane id=":8.7_0_0" index="0" disallow="pedestrian tram rail_urban rail rail_electric rail_fast ship" speed="22.22" length="0.30" width="3.75" shape="590.64,620.55,20.00 590.83,620.78,20.00"/>
    <lane id=":8.7_0_1" index="1" disallow="pedestrian tram rail_urban rail rail_electric rail_fast ship" speed="22.22" length="0.30" width="3.75" shape="587.72,622.90,20.00 587.91,623.14,20.00"/>
    <lane id=":8.7_0_2" index="2" disallow="pedestrian tram rail_urban rail rail_electric rail_fast ship" speed="22.22" length="0.30" width="3.75" shape="584.81,625.26,20.00 584.99,625.49,20.00"/>
  </edge>
  <edge id=":9.10_0" function="internal">
    <lane id=":9.10_0_0" index="0" disallow="pedestrian tram rail_urban rail rail_electric rail_fast ship" speed="22.22" length="0.30" width="3.75" shape="573.13,635.07,20.00 572.94,634.84,20.00"/>
    <lane id=":9.10_0_1" index="1" disallow="pedestrian tram rail_urban rail rail_electric rail_fast ship" speed="22.22" length="0.30" width="3.75" shape="576.05,632.72,20.00 575.86,632.49,20.00"/>
    <lane id=":9.10_0_2" index="2" disallow="pedestrian tram rail_urban rail rail_electric rail_fast ship" speed="22.22" length="0.30" width="3.75" shape="578.97,630.37,20.00 578.77,630.13,20.00"/>
  </edge>
  <edge id="-0" from="0.begin" to="0" priority="1" type="driving" shape="1102.73,202.87 1101.79,203.66 1100.82,204.47 1099.82,205.31 1098.79,206.17 1097.74,207.05 1096.65,207.96 1095.54,208.90 1094.40,209.86 1093.23,210.84 1092.04,211.85 1090.82,212.89 1089.57,213.94 1088.30,215.02 1087.00,216.12 1085.67,217.25 1084.32,218.40 1082.94,219.57 1081.54,220.77 1080.11,221.98 1078.65,223.22 1077.17,224.48 1075.67,225.77 1074.14,227.07 1072.59,228.40 1071.01,229.74 1069.41,231.11 1067.78,232.50 1066.13,233.91 1064.46,235.34 1062.77,236.79 1061.05,238.26 1059.31,239.76 1057.55,241.27 1055.76,242.80 1053.95,244.35 1052.12,245.92 1050.27,247.50 1048.40,249.11 1046.50,250.74 1044.59,252.38 1042.65,254.04 1040.69,255.73 1038.71,257.42">
    <lane id="-0_0" index="0" disallow="pedestrian tram rail_urban rail rail_electric rail_fast ship" speed="22.22" length="80.00" width="3.75" shape="1108.73,210.08 1107.80,210.86 1106.83,211.66 1105.84,212.49 1104.82,213.35 1103.77,214.23 1102.69,215.14 1101.58,216.07 1100.44,217.03 1099.28,218.01 1098.09,219.01 1096.88,220.04 1095.63,221.10 1094.36,222.17 1093.06,223.27 1091.74,224.40 1090.39,225.54 1089.01,226.71 1087.61,227.91 1086.19,229.12 1084.73,230.36 1083.26,231.62 1081.75,232.90 1080.23,234.20 1078.68,235.53 1077.10,236.87 1075.50,238.24 1073.88,239.63 1072.23,241.04 1070.56,242.47 1068.87,243.91 1067.15,245.39 1065.41,246.88 1063.65,248.39 1061.86,249.92 1060.05,251.46 1058.23,253.03 1056.37,254.62 1054.50,256.23 1052.61,257.85 1050.69,259.50 1048.76,261.16 1047.88,261.91" type="driving"/>
    <lane id="-0_1" index="1" disallow="pedestrian tram rail_urban rail rail_electric rail_fast ship" speed="22.22" length="80.00" width="3.75" shape="1106.33,207.20 1105.39,207.98 1104.43,208.79 1103.43,209.62 1102.41,210.48 1101.35,211.36 1100.27,212.27 1099.16,213.20 1098.03,214.16 1096.86,215.14 1095.67,216.15 1094.45,217.18 1093.21,218.23 1091.94,219.31 1090.64,220.41 1089.31,221.54 1087.96,222.69 1086.58,223.86 1085.18,225.05 1083.75,226.27 1082.30,227.50 1080.82,228.76 1079.32,230.04 1077.79,231.35 1076.24,232.67 1074.66,234.02 1073.06,235.39 1071.44,236.78 1069.79,238.19 1068.12,239.62 1066.43,241.07 1064.71,242.54 1062.97,244.03 1061.21,245.54 1059.42,247.07 1057.61,248.62 1055.78,250.19 1053.93,251.77 1052.06,253.38 1050.17,255.01 1048.25,256.65 1046.31,258.31 1045.43,259.07" type="driving"/>
    <lane id="-0_2" index="2" disallow="pedestrian tram rail_urban rail rail_electric rail_fast ship" speed="22.22" length="80.00" width="3.75" shape="1103.93,204.31 1102.99,205.10 1102.02,205.91 1101.02,206.74 1100.00,207.60 1098.94,208.49 1097.86,209.40 1096.75,210.33 1095.61,211.29 1094.44,212.28 1093.25,213.29 1092.03,214.32 1090.78,215.37 1089.51,216.45 1088.21,217.55 1086.88,218.68 1085.53,219.83 1084.15,221.00 1082.75,222.19 1081.32,223.41 1079.87,224.65 1078.39,225.91 1076.89,227.19 1075.36,228.50 1073.80,229.82 1072.23,231.17 1070.63,232.54 1069.00,233.93 1067.35,235.34 1065.68,236.77 1063.99,238.22 1062.27,239.69 1060.53,241.18 1058.77,242.69 1056.98,244.22 1055.17,245.77 1053.34,247.34 1051.49,248.93 1049.62,250.54 1047.72,252.16 1045.81,253.80 1043.87,255.47 1042.99,256.22" type="driving"/>
  </edge>
  <edge id="-1" from="0" to="2.1" priority="1" type="driving" shape="1038.71,257.42 1037.57,258.41 1036.42,259.40 1035.26,260.39 1034.10,261.39 1032.92,262.40 1031.75,263.41 1030.56,264.43 1029.37,265.45 1028.17,266.48 1026.97,267.51 1025.76,268.55 1024.54,269.60 1023.32,270.65 1022.09,271.71 1020.86,272.77 1019.62,273.84 1018.37,274.91 1017.12,275.98 1015.86,277.07 1014.59,278.16 1013.32,279.25 1012.04,280.35 1010.76,281.45 1009.47,282.56 1008.18,283.67 1006.88,284.79 1005.57,285.91 1004.26,287.04 1002.94,288.17 1001.62,289.31 1000.29,290.45 998.95,291.60 997.61,292.75 996.27,293.91 994.92,295.07 993.56,296.24 992.20,297.41 990.83,298.58 989.46,299.76 988.09,300.94 986.70,302.13 985.32,303.33 983.92,304.52 982.53,305.72 981.12,306.93 979.71,308.14 978.30,309.35 976.88,310.57 975.46,311.80 974.03,313.02 972.60,314.25 971.16,315.49 969.72,316.73 968.28,317.97 966.82,319.22 965.37,320.47 963.91,321.72 962.44,322.98 960.97,324.24 959.50,325.51 958.02,326.78 956.54,328.05 955.05,329.33 953.56,330.61 952.06,331.89 950.56,333.18 949.06,334.47 947.55,335.77 946.04,337.07 944.52,338.37 943.00,339.67 941.48,340.98 939.95,342.29 938.41,343.61 936.88,344.93 935.34,346.25 933.79,347.57 932.24,348.90 930.69,350.23 929.14,351.57 927.58,352.90 926.01,354.24 924.45,355.59 922.88,356.93 921.30,358.28 919.73,359.63 918.14,360.99 916.56,362.35 914.97,363.71 913.38,365.07 911.79,366.43 910.19,367.80 908.59,369.17 906.99,370.55 905.38,371.92 903.77,373.30 902.16,374.68 900.54,376.06 898.92,377.45 897.30,378.84 895.67,380.23 894.04,381.62 892.41,383.02 890.78,384.41 889.14,385.81 887.50,387.21 885.86,388.62 884.22,390.02 882.57,391.43 880.92,392.84 879.27,394.25 877.61,395.66 875.95,397.08 874.29,398.50 872.63,399.92 870.97,401.34 869.30,402.76 867.63,404.18 865.96,405.61 864.29,407.04 862.61,408.47 860.93,409.90 859.25,411.33 857.57,412.76 855.89,414.20 854.20,415.64 852.51,417.08 850.82,418.52 849.13,419.96 847.44,421.40 845.74,422.84 844.04,424.29 842.34,425.73 840.64,427.18 838.94,428.63 837.24,430.08 835.53,431.53 833.82,432.98 832.12,434.43 830.41,435.89 828.69,437.34 826.98,438.80 825.27,440.25 823.55,441.71 821.84,443.17 820.12,444.62 818.40,446.08 816.68,447.54 814.96,449.00 813.23,450.46 811.51,451.93 809.79,453.39 808.06,454.85 806.33,456.31 804.61,457.78 802.88,459.24 801.15,460.70 799.42,462.17 797.69,463.63 795.96,465.10 794.23,466.56 792.49,468.03 790.76,469.49 789.03,470.96 787.29,472.43 785.56,473.89 783.82,475.36 782.09,476.82 780.35,478.29 778.62,479.75 776.88,481.22 775.14,482.68 773.41,484.15 771.67,485.61 769.93,487.08 768.20,488.54 766.46,490.01 764.72,491.47 762.98,492.93 761.25,494.40 759.51,495.86 757.77,497.32 756.04,498.78 754.30,500.24 752.56,501.70 750.83,503.16 749.09,504.62 747.35,506.07 745.62,507.53 743.89,508.99 742.15,510.44 740.42,511.90 738.68,513.35 736.95,514.80 735.22,516.25 733.49,517.70 731.76,519.15 730.03,520.60 728.30,522.05 726.57,523.49 724.84,524.94 723.12,526.38 721.39,527.82 719.67,529.26 717.94,530.70 716.22,532.14 714.50,533.58 712.78,535.01 711.06,536.45 709.34,537.88 707.63,539.31 705.91,540.74 704.20,542.17 702.48,543.59 700.77,545.02 699.06,546.44 697.36,547.86 695.65,549.28 693.94,550.70 692.24,552.11 690.54,553.52 688.84,554.93 687.14,556.34 685.44,557.75 683.74,559.16 682.05,560.56 680.36,561.96 678.67,563.36 676.98,564.76 675.29,566.15 673.61,567.54 671.93,568.93 670.25,570.32 668.57,571.71 666.89,573.09 665.22,574.47 663.55,575.85 661.88,577.22 660.21,578.59 658.55,579.96 656.89,581.33 655.23,582.70 653.57,584.06 651.91,585.42 650.26,586.78 648.61,588.13 646.97,589.48 645.32,590.83 643.68,592.18 642.04,593.52 640.40,594.86 638.77,596.19 637.14,597.53 635.51,598.86 633.89,600.19 632.26,601.51 630.64,602.83 629.03,604.15 627.42,605.46 625.81,606.77 624.20,608.08 622.59,609.39 620.99,610.69 619.40,611.99 617.80,613.28 616.21,614.57 614.62,615.86 613.04,617.14 611.46,618.42 609.88,619.70 608.31,620.97 606.74,622.24 605.17,623.51 603.61,624.77 602.05,626.03 600.49,627.28 598.94,628.53 597.39,629.78 595.85,631.02 594.31,632.26 592.77,633.49 591.24,634.72 589.71,635.95 588.19,637.17 586.67,638.39 585.15,639.60 583.64,640.81 582.13,642.01 580.63,643.22 579.13,644.41 577.63,645.60 576.14,646.79 574.65,647.98 573.17,649.15 571.69,650.33 570.22,651.50 568.75,652.66 567.28,653.82 565.82,654.98 564.37,656.13 562.92,657.28 561.47,658.42 560.03,659.55 558.59,660.69 557.16,661.81 555.73,662.94 554.31,664.05 552.89,665.17 551.48,666.27 550.07,667.38 548.67,668.47 547.27,669.56 545.88,670.65 544.49,671.73 543.11,672.81 541.73,673.88 540.36,674.95 538.99,676.01 537.63,677.06 536.28,678.11 534.93,679.16 533.58,680.20 532.24,681.23 530.91,682.26 529.58,683.28 528.26,684.30 526.94,685.31 525.63,686.31 524.32,687.31 523.02,688.31 521.73,689.29 520.44,690.28 519.16,691.25 517.88,692.22 516.61,693.19 515.34,694.15 514.08,695.10 512.83,696.05 511.58,696.99 510.34,697.92 509.11,698.85 507.88,699.77 506.66,700.69 505.44,701.60 504.23,702.50 503.03,703.40 501.83,704.29 500.64,705.17 499.46,706.05 498.28,706.92 497.11,707.79 495.94,708.65 494.79,709.50 493.63,710.34 492.49,711.18 491.35,712.01 490.22,712.84 489.10,713.66">
    <lane id="-1_0" index="0" disallow="pedestrian tram rail_urban rail rail_electric rail_fast ship" speed="22.22" length="696.90" width="3.75" shape="1031.29,276.16 1030.65,276.71 1029.43,277.76 1028.20,278.82 1026.97,279.88 1025.73,280.94 1024.48,282.02 1023.23,283.09 1021.97,284.18 1020.70,285.26 1019.43,286.36 1018.16,287.46 1016.87,288.56 1015.58,289.67 1014.29,290.78 1012.99,291.90 1011.68,293.02 1010.37,294.15 1009.05,295.28 1007.73,296.42 1006.40,297.56 1005.07,298.71 1003.73,299.86 1002.38,301.02 1001.03,302.18 999.67,303.34 998.31,304.51 996.95,305.69 995.57,306.87 994.20,308.05 992.81,309.24 991.43,310.43 990.03,311.63 988.64,312.83 987.23,314.04 985.83,315.25 984.41,316.46 982.99,317.68 981.57,318.91 980.14,320.13 978.71,321.36 977.27,322.60 975.83,323.84 974.39,325.08 972.93,326.33 971.48,327.58 970.02,328.83 968.55,330.09 967.08,331.35 965.61,332.62 964.13,333.89 962.65,335.16 961.16,336.44 959.67,337.72 958.17,339.01 956.67,340.30 955.17,341.59 953.66,342.88 952.14,344.18 950.63,345.48 949.11,346.79 947.58,348.10 946.05,349.41 944.52,350.73 942.98,352.04 941.44,353.37 939.90,354.69 938.35,356.02 936.79,357.35 935.24,358.68 933.68,360.02 932.12,361.36 930.55,362.71 928.98,364.05 927.40,365.40 925.83,366.75 924.24,368.11 922.66,369.47 921.07,370.83 919.48,372.19 917.89,373.55 916.29,374.92 914.69,376.29 913.08,377.67 911.48,379.04 909.86,380.42 908.25,381.80 906.63,383.19 905.01,384.57 903.39,385.96 901.77,387.35 900.14,388.75 898.51,390.14 896.87,391.54 895.23,392.94 893.59,394.34 891.95,395.74 890.31,397.15 888.66,398.56 887.01,399.97 885.36,401.38 883.70,402.79 882.04,404.21 880.38,405.63 878.72,407.05 877.05,408.47 875.39,409.89 873.72,411.32 872.04,412.74 870.37,414.17 868.69,415.60 867.02,417.03 865.33,418.47 863.65,419.90 861.97,421.34 860.28,422.77 858.59,424.21 856.90,425.65 855.21,427.09 853.51,428.54 851.82,429.98 850.12,431.43 848.42,432.87 846.72,434.32 845.02,435.77 843.31,437.22 841.60,438.67 839.90,440.12 838.19,441.58 836.48,443.03 834.76,444.48 833.05,445.94 831.34,447.40 829.62,448.85 827.90,450.31 826.18,451.77 824.46,453.23 822.74,454.69 821.02,456.15 819.30,457.61 817.57,459.08 815.85,460.54 814.12,462.00 812.39,463.47 810.67,464.93 808.94,466.39 807.21,467.86 805.48,469.32 803.75,470.79 802.01,472.26 800.28,473.72 798.55,475.19 796.81,476.65 795.08,478.12 793.34,479.59 791.61,481.05 789.87,482.52 788.14,483.99 786.40,485.45 784.66,486.92 782.93,488.38 781.19,489.85 779.45,491.32 777.71,492.78 775.97,494.25 774.24,495.71 772.50,497.18 770.76,498.64 769.02,500.10 767.28,501.57 765.54,503.03 763.81,504.49 762.07,505.95 760.33,507.42 758.59,508.88 756.86,510.34 755.12,511.80 753.38,513.25 751.65,514.71 749.91,516.17 748.18,517.62 746.44,519.08 744.71,520.53 742.97,521.99 741.24,523.44 739.51,524.89 737.78,526.34 736.05,527.79 734.32,529.24 732.59,530.68 730.86,532.13 729.13,533.57 727.40,535.02 725.68,536.46 723.95,537.90 722.23,539.34 720.51,540.78 718.79,542.21 717.07,543.65 715.35,545.08 713.63,546.51 711.91,547.94 710.20,549.37 708.48,550.80 706.77,552.22 705.06,553.65 703.35,555.07 701.64,556.49 699.93,557.91 698.23,559.32 696.52,560.74 694.82,562.15 693.12,563.56 691.42,564.97 689.73,566.38 688.03,567.78 686.34,569.18 684.65,570.58 682.96,571.98 681.27,573.38 679.58,574.77 677.90,576.16 676.22,577.55 674.54,578.94 672.86,580.32 671.19,581.70 669.51,583.08 667.84,584.46 666.17,585.83 664.51,587.20 662.84,588.57 661.18,589.94 659.52,591.30 657.87,592.66 656.21,594.02 654.56,595.38 652.91,596.73 651.26,598.08 649.62,599.43 647.98,600.77 646.34,602.11 644.71,603.45 643.07,604.79 641.44,606.12 639.82,607.45 638.19,608.77 636.57,610.10 634.95,611.41 633.34,612.73 631.72,614.04 630.12,615.35 628.51,616.66 626.91,617.96 625.31,619.26 623.71,620.56 622.12,621.85 620.53,623.14 618.94,624.43 617.36,625.71 615.78,626.99 614.20,628.26 612.63,629.53 611.06,630.80 609.50,632.06 607.94,633.32 606.38,634.58 604.82,635.83 603.27,637.08 601.73,638.32 600.18,639.56 598.64,640.80 597.11,642.03 595.58,643.26 594.05,644.49 592.53,645.71 591.01,646.92 589.49,648.13 587.98,649.34 586.47,650.54 584.97,651.74 583.47,652.94 581.98,654.13 580.49,655.31 579.00,656.49 577.52,657.67 576.04,658.84 574.57,660.01 573.10,661.17 571.64,662.33 570.18,663.48 568.73,664.63 567.28,665.78 565.83,666.92 564.39,668.05 562.95,669.18 561.52,670.31 560.10,671.43 558.68,672.54 557.26,673.65 555.85,674.76 554.44,675.86 553.04,676.95 551.64,678.04 550.25,679.13 548.87,680.21 547.49,681.28 546.11,682.35 544.74,683.41 543.37,684.47 542.01,685.53 540.66,686.57 539.31,687.62 537.97,688.65 536.63,689.68 535.29,690.71 533.97,691.73 532.64,692.75 531.33,693.75 530.02,694.76 528.71,695.76 527.41,696.75 526.12,697.73 524.83,698.71 523.55,699.69 522.27,700.66 521.00,701.62 519.74,702.58 518.48,703.53 517.23,704.47 515.98,705.41 514.74,706.34 513.51,707.27 512.28,708.19 511.05,709.11 509.84,710.01 508.63,710.92 507.43,711.81 506.23,712.70 505.04,713.58 503.85,714.46 502.68,715.33 501.50,716.19 500.34,717.05 499.18,717.90 498.03,718.75 496.88,719.58 495.74,720.42 494.73,721.15" type="driving"/>
    <lane id="-1_1" index="1" disallow="pedestrian tram rail_urban rail rail_electric rail_fast ship" speed="22.22" length="696.90" width="3.75" shape="1028.85,273.32 1028.21,273.87 1026.99,274.92 1025.76,275.97 1024.52,277.03 1023.28,278.10 1022.04,279.17 1020.78,280.25 1019.52,281.33 1018.26,282.42 1016.99,283.51 1015.71,284.61 1014.43,285.71 1013.14,286.82 1011.84,287.94 1010.54,289.05 1009.24,290.18 1007.93,291.30 1006.61,292.44 1005.28,293.58 1003.96,294.72 1002.62,295.86 1001.28,297.02 999.94,298.17 998.59,299.33 997.23,300.50 995.87,301.67 994.50,302.85 993.13,304.03 991.75,305.21 990.37,306.40 988.98,307.59 987.59,308.79 986.19,309.99 984.79,311.20 983.38,312.41 981.97,313.62 980.55,314.84 979.13,316.06 977.70,317.29 976.27,318.52 974.83,319.75 973.39,320.99 971.94,322.24 970.49,323.48 969.03,324.73 967.57,325.99 966.11,327.25 964.64,328.51 963.16,329.78 961.69,331.05 960.20,332.32 958.72,333.60 957.22,334.88 955.73,336.16 954.23,337.45 952.72,338.74 951.21,340.04 949.70,341.34 948.18,342.64 946.66,343.94 945.14,345.25 943.61,346.56 942.08,347.88 940.54,349.20 939.00,350.52 937.45,351.84 935.91,353.17 934.35,354.50 932.80,355.84 931.24,357.18 929.67,358.52 928.11,359.86 926.54,361.20 924.96,362.55 923.39,363.91 921.80,365.26 920.22,366.62 918.63,367.98 917.04,369.34 915.45,370.71 913.85,372.08 912.25,373.45 910.64,374.82 909.04,376.20 907.43,377.57 905.81,378.95 904.20,380.34 902.58,381.72 900.95,383.11 899.33,384.50 897.70,385.90 896.07,387.29 894.43,388.69 892.80,390.09 891.16,391.49 889.52,392.89 887.87,394.30 886.22,395.71 884.57,397.12 882.92,398.53 881.27,399.94 879.61,401.36 877.95,402.78 876.28,404.19 874.62,405.62 872.95,407.04 871.28,408.46 869.61,409.89 867.94,411.32 866.26,412.75 864.58,414.18 862.90,415.61 861.22,417.05 859.53,418.48 857.85,419.92 856.16,421.36 854.47,422.80 852.78,424.24 851.08,425.68 849.39,427.13 847.69,428.57 845.99,430.02 844.29,431.46 842.59,432.91 840.88,434.36 839.18,435.81 837.47,437.27 835.76,438.72 834.05,440.17 832.34,441.63 830.62,443.08 828.91,444.54 827.19,446.00 825.48,447.45 823.76,448.91 822.04,450.37 820.32,451.83 818.60,453.29 816.87,454.75 815.15,456.22 813.42,457.68 811.70,459.14 809.97,460.60 808.24,462.07 806.51,463.53 804.78,465.00 803.05,466.46 801.32,467.93 799.59,469.39 797.86,470.86 796.13,472.32 794.39,473.79 792.66,475.26 790.92,476.72 789.19,478.19 787.45,479.65 785.72,481.12 783.98,482.59 782.24,484.05 780.51,485.52 778.77,486.98 777.03,488.45 775.30,489.91 773.56,491.38 771.82,492.84 770.08,494.31 768.34,495.77 766.61,497.24 764.87,498.70 763.13,500.16 761.39,501.62 759.66,503.08 757.92,504.55 756.18,506.01 754.44,507.47 752.71,508.92 750.97,510.38 749.24,511.84 747.50,513.30 745.77,514.75 744.03,516.21 742.30,517.66 740.57,519.11 738.83,520.56 737.10,522.02 735.37,523.47 733.64,524.91 731.91,526.36 730.18,527.81 728.45,529.25 726.73,530.70 725.00,532.14 723.27,533.58 721.55,535.02 719.83,536.46 718.10,537.90 716.38,539.33 714.66,540.77 712.95,542.20 711.23,543.63 709.51,545.06 707.80,546.49 706.08,547.92 704.37,549.34 702.66,550.76 700.95,552.19 699.24,553.60 697.54,555.02 695.83,556.44 694.13,557.85 692.43,559.26 690.73,560.67 689.03,562.08 687.33,563.49 685.64,564.89 683.95,566.29 682.25,567.69 680.57,569.09 678.88,570.49 677.19,571.88 675.51,573.27 673.83,574.66 672.15,576.04 670.47,577.43 668.80,578.81 667.13,580.19 665.46,581.56 663.79,582.94 662.12,584.31 660.46,585.68 658.80,587.04 657.14,588.41 655.49,589.77 653.83,591.12 652.18,592.48 650.53,593.83 648.89,595.18 647.24,596.53 645.60,597.87 643.97,599.21 642.33,600.55 640.70,601.88 639.07,603.21 637.44,604.54 635.82,605.87 634.20,607.19 632.58,608.51 630.97,609.82 629.36,611.14 627.75,612.45 626.14,613.75 624.54,615.05 622.94,616.35 621.35,617.65 619.76,618.94 618.17,620.23 616.58,621.51 615.00,622.79 613.42,624.07 611.85,625.35 610.27,626.62 608.71,627.88 607.14,629.15 605.58,630.40 604.02,631.66 602.47,632.91 600.92,634.16 599.38,635.40 597.83,636.64 596.30,637.88 594.76,639.11 593.23,640.34 591.70,641.56 590.18,642.78 588.66,643.99 587.15,645.20 585.64,646.41 584.13,647.61 582.63,648.81 581.13,650.00 579.64,651.19 578.15,652.38 576.67,653.56 575.19,654.73 573.71,655.90 572.24,657.07 570.77,658.23 569.31,659.39 567.85,660.54 566.40,661.69 564.95,662.83 563.51,663.97 562.07,665.11 560.64,666.23 559.21,667.36 557.78,668.48 556.36,669.59 554.95,670.70 553.54,671.80 552.13,672.90 550.73,674.00 549.34,675.09 547.95,676.17 546.56,677.25 545.18,678.32 543.81,679.39 542.44,680.45 541.08,681.51 539.72,682.56 538.37,683.61 537.02,684.65 535.68,685.68 534.34,686.71 533.01,687.74 531.68,688.76 530.36,689.77 529.05,690.78 527.74,691.78 526.44,692.78 525.14,693.77 523.85,694.75 522.56,695.73 521.28,696.70 520.01,697.67 518.74,698.63 517.48,699.59 516.22,700.54 514.97,701.48 513.73,702.42 512.49,703.35 511.25,704.27 510.03,705.19 508.81,706.10 507.60,707.01 506.39,707.91 505.19,708.80 503.99,709.69 502.81,710.57 501.62,711.45 500.45,712.31 499.28,713.18 498.12,714.03 496.96,714.88 495.81,715.72 494.67,716.56 493.53,717.39 492.53,718.12" type="driving"/>