<?xml version='1.0' encoding='UTF-8'?>
<!-- generated on 2022-11-12 23:20:21 by Eclipse SUMO netconvert Version 1.13.0
<configuration xmlns:xsi="http://www.w3.org/2001/XMLSchema-instance" xsi:noNamespaceSchemaLocation="http://sumo.dlr.de/xsd/netconvertConfiguration.xsd">

    <input>
        <opendrive-files value="map_v4\10\745546\745546.xodr"/>
    </input>

    <output>
        <output-file value="C:\Users\LinGe\AppData\Local\Temp\tmpi9ddpa1x\745546.net.xml"/>
    </output>

    <processing>
        <geometry.max-grade.fix value="false"/>
    </processing>

    <tls_building>
        <tls.left-green.time value="0"/>
    </tls_building>

    <junctions>
        <rectangular-lane-cut value="true"/>
    </junctions>

    <report>
        <aggregate-warnings value="5"/>
    </report>

</configuration>
-->
<net xmlns:xsi="http://www.w3.org/2001/XMLSchema-instance" version="1.9" junctionCornerDetail="5" rectangularLaneCut="true" limitTurnSpeed="5.50" xsi:noNamespaceSchemaLocation="http://sumo.dlr.de/xsd/net_file.xsd">
  <location netOffset="85.03,101.26" convBoundary="0.00,0.00,1186.21,1302.51" origBoundary="-85.03,-101.26,1101.18,1201.26" projParameter="!"/>
  <type id="bidirectional" priority="1" speed="1.39" disallow="pedestrian tram rail_urban rail rail_electric rail_fast ship" width="3.65"/>
  <type id="border" priority="0" speed="1.39" disallow="all" discard="1" width="0.10"/>
  <type id="driving" priority="1" speed="13.89" disallow="pedestrian tram rail_urban rail rail_electric rail_fast ship" width="3.65"/>
  <type id="entry" priority="1" speed="22.22" disallow="pedestrian tram rail_urban rail rail_electric rail_fast ship" width="3.65"/>
  <type id="exit" priority="1" speed="22.22" disallow="pedestrian tram rail_urban rail rail_electric rail_fast ship" width="3.65"/>
  <type id="median" priority="0" speed="1.39" disallow="all" discard="1" width="0.10"/>
  <type id="mwyEntry" priority="1" speed="22.22" allow="private emergency authority army vip passenger hov taxi bus coach delivery truck trailer motorcycle evehicle custom1 custom2" width="3.65"/>
  <type id="mwyExit" priority="1" speed="22.22" allow="private emergency authority army vip passenger hov taxi bus coach delivery truck trailer motorcycle evehicle custom1 custom2" width="3.65"/>
  <type id="none" priority="0" speed="1.39" disallow="all" discard="1" width="1.00"/>
  <type id="offRamp" priority="1" speed="22.22" allow="private emergency authority army vip passenger hov taxi bus coach delivery truck trailer motorcycle evehicle custom1 custom2" width="3.65"/>
  <type id="onRamp" priority="1" speed="22.22" allow="private emergency authority army vip passenger hov taxi bus coach delivery truck trailer motorcycle evehicle custom1 custom2" width="3.65"/>
  <type id="parking" priority="1" speed="1.39" disallow="pedestrian tram rail_urban rail rail_electric rail_fast ship" width="2.50"/>
  <type id="rail" priority="3" speed="33.33" allow="rail_urban rail rail_electric rail_fast" width="3.65"/>
  <type id="restricted" priority="0" speed="13.89" disallow="all" width="3.65"/>
  <type id="roadWorks" priority="0" speed="1.39" allow="authority" width="3.65"/>
  <type id="shoulder" priority="0" speed="1.39" disallow="all" discard="1" width="1.00"/>
  <type id="special1" priority="1" speed="22.22" allow="custom1" discard="1" width="3.65"/>
  <type id="special2" priority="1" speed="22.22" allow="custom2" discard="1" width="3.65"/>
  <type id="special3" priority="1" speed="22.22" allow="custom1 custom2" discard="1" width="3.65"/>
  <type id="stop" priority="1" speed="13.89" disallow="pedestrian tram rail_urban rail rail_electric rail_fast ship" width="3.65"/>
  <type id="tram" priority="2" speed="13.89" allow="tram" width="3.65"/>
  <edge id=":0_0" function="internal">
    <lane id=":0_0_0" index="0" disallow="pedestrian tram rail_urban rail rail_electric rail_fast ship" speed="19.44" length="42.63" width="3.75" shape="1063.27,282.72 1052.83,289.17 1042.36,296.49 1033.65,303.07 1028.49,307.29"/>
  </edge>
  <edge id=":0_1" function="internal">
    <lane id=":0_1_0" index="0" disallow="pedestrian tram rail_urban rail rail_electric rail_fast ship" speed="22.22" length="42.83" width="3.75" shape="1063.27,282.72 1025.86,303.56"/>
    <lane id=":0_1_1" index="1" disallow="pedestrian tram rail_urban rail rail_electric rail_fast ship" speed="22.22" length="42.83" width="3.75" shape="1061.45,279.45 1024.03,300.28"/>
    <lane id=":0_1_2" index="2" disallow="pedestrian tram rail_urban rail rail_electric rail_fast ship" speed="22.22" length="42.83" width="3.75" shape="1059.63,276.17 1022.20,297.01"/>
  </edge>
  <edge id=":1_0" function="internal">
    <lane id=":1_0_0" index="0" disallow="pedestrian tram rail_urban rail rail_electric rail_fast ship" speed="18.06" length="36.82" width="3.75" shape="182.53,899.79 190.62,891.83,0.05 197.74,883.74,0.10 203.28,876.75,0.14 206.68,872.09,0.16"/>
  </edge>
  <edge id=":1_1" function="internal">
    <lane id=":1_1_0" index="0" disallow="pedestrian tram rail_urban rail rail_electric rail_fast ship" speed="22.22" length="37.01" width="3.75" shape="182.53,899.79 210.16,875.16"/>
    <lane id=":1_1_1" index="1" disallow="pedestrian tram rail_urban rail rail_electric rail_fast ship" speed="22.22" length="37.01" width="3.75" shape="185.02,902.59 212.65,877.97"/>
    <lane id=":1_1_2" index="2" disallow="pedestrian tram rail_urban rail rail_electric rail_fast ship" speed="22.22" length="37.01" width="3.75" shape="187.52,905.39 215.15,880.77"/>
  </edge>
  <edge id=":10_0" function="internal">
    <lane id=":10_0_0" index="0" disallow="pedestrian tram rail_urban rail rail_electric rail_fast ship" speed="19.44" length="49.87" width="3.75" shape="969.91,1098.51,20.00 974.39,1104.89,20.00 982.32,1115.70,20.00 991.64,1127.79,20.00 1000.28,1138.03,20.00"/>
  </edge>
  <edge id=":10_1" function="internal">
    <lane id=":10_1_0" index="0" disallow="pedestrian tram rail_urban rail rail_electric rail_fast ship" speed="22.22" length="49.42" width="3.75" shape="966.80,1101.69,20.00 1000.28,1138.03,20.00"/>
    <lane id=":10_1_1" index="1" disallow="pedestrian tram rail_urban rail rail_electric rail_fast ship" speed="22.22" length="49.42" width="3.75" shape="964.04,1104.23,20.00 997.53,1140.58,20.00"/>
    <lane id=":10_1_2" index="2" disallow="pedestrian tram rail_urban rail rail_electric rail_fast ship" speed="22.22" length="49.42" width="3.75" shape="961.28,1106.77,20.00 994.77,1143.12,20.00"/>
  </edge>
  <edge id=":11_0" function="internal">
    <lane id=":11_0_0" index="0" disallow="pedestrian tram rail_urban rail rail_electric rail_fast ship" speed="16.67" length="3.00" width="3.75" shape="931.33,456.91,5.33 930.16,459.67,5.42"/>
  </edge>
  <edge id=":11_1" function="internal">
    <lane id=":11_1_0" index="0" disallow="pedestrian tram rail_urban rail rail_electric rail_fast ship" speed="18.06" length="3.00" width="3.75" shape="931.33,456.91,5.33 930.16,459.67,5.38"/>
  </edge>
  <edge id=":12_0" function="internal">
    <lane id=":12_0_0" index="0" disallow="pedestrian tram rail_urban rail rail_electric rail_fast ship" speed="18.06" length="20.02" width="3.75" shape="389.65,825.28,4.16 385.42,823.60,4.15 380.20,821.86,4.13 374.90,820.52,4.12 370.43,820.01,4.11"/>
  </edge>
  <edge id=":12_1" function="internal">
    <lane id=":12_1_0" index="0" disallow="pedestrian tram rail_urban rail rail_electric rail_fast ship" speed="22.22" length="18.86" width="3.75" shape="389.28,820.62,4.15 384.93,820.35,4.14 379.86,820.14,4.13 374.78,820.02,4.12 370.43,820.01,4.11"/>
  </edge>
  <edge id=":13_0" function="internal">
    <lane id=":13_0_0" index="0" disallow="pedestrian tram rail_urban rail rail_electric rail_fast ship" speed="13.89" length="50.45" width="3.75" shape="306.30,477.28,13.58 305.29,468.05,13.59 303.39,452.23,13.61 301.40,436.41,13.62 300.14,427.21,13.63"/>
  </edge>
  <edge id=":13_1" function="internal">
    <lane id=":13_1_0" index="0" disallow="pedestrian tram rail_urban rail rail_electric rail_fast ship" speed="16.67" length="50.14" width="3.75" shape="310.20,476.33,13.52 300.14,427.21,13.63"/>
  </edge>
  <edge id=":14_0" function="internal">
    <lane id=":14_0_0" index="0" disallow="pedestrian tram rail_urban rail rail_electric rail_fast ship" speed="13.53" length="13.63" width="3.75" shape="712.67,415.70,4.00 716.03,416.96,3.99 719.24,417.85,3.98 722.47,418.12,3.97 725.88,417.49,3.96"/>
  </edge>
  <edge id=":14_1" function="internal">
    <lane id=":14_1_0" index="0" disallow="pedestrian tram rail_urban rail rail_electric rail_fast ship" speed="16.67" length="11.58" width="3.75" shape="714.84,420.99,4.00 725.88,417.49,3.96"/>
  </edge>
  <edge id=":14.13_0" function="internal">
    <lane id=":14.13_0_0" index="0" disallow="pedestrian tram rail_urban rail rail_electric rail_fast ship" speed="22.22" length="0.30" width="3.75" shape="501.02,615.38,20.00 500.83,615.15,20.00"/>
    <lane id=":14.13_0_1" index="1" disallow="pedestrian tram rail_urban rail rail_electric rail_fast ship" speed="22.22" length="0.30" width="3.75" shape="503.93,613.03,20.00 503.75,612.79,20.00"/>
    <lane id=":14.13_0_2" index="2" disallow="pedestrian tram rail_urban rail rail_electric rail_fast ship" speed="22.22" length="0.30" width="3.75" shape="506.85,610.67,20.00 506.66,610.44,20.00"/>
  </edge>
  <edge id=":15_0" function="internal">
    <lane id=":15_0_0" index="0" disallow="pedestrian tram rail_urban rail rail_electric rail_fast ship" speed="16.67" length="3.02" width="3.75" shape="856.92,796.08,12.15 857.08,799.09,12.23"/>
  </edge>
  <edge id=":15_1" function="internal">
    <lane id=":15_1_0" index="0" disallow="pedestrian tram rail_urban rail rail_electric rail_fast ship" speed="15.28" length="3.01" width="3.75" shape="856.91,796.09,12.19 857.08,799.09,12.23"/>
  </edge>
  <edge id=":18.17_0" function="internal">
    <lane id=":18.17_0_0" index="0" disallow="pedestrian tram rail_urban rail rail_electric rail_fast ship" speed="22.22" length="0.30" width="3.75" shape="523.23,857.00,6.90 522.95,856.89,6.90"/>
  </edge>
  <edge id=":2_0" function="internal">
    <lane id=":2_0_0" index="0" disallow="pedestrian tram rail_urban rail rail_electric rail_fast ship" speed="19.44" length="117.99" width="3.75" shape="158.70,89.56,20.00 227.94,185.10,20.00"/>
  </edge>
  <edge id=":2_1" function="internal">
    <lane id=":2_1_0" index="0" disallow="pedestrian tram rail_urban rail rail_electric rail_fast ship" speed="22.22" length="118.05" width="3.75" shape="158.70,89.56,20.00 224.67,187.45,20.00"/>
    <lane id=":2_1_1" index="1" disallow="pedestrian tram rail_urban rail rail_electric rail_fast ship" speed="22.22" length="118.05" width="3.75" shape="155.59,91.66,20.00 221.56,189.55,20.00"/>
    <lane id=":2_1_2" index="2" disallow="pedestrian tram rail_urban rail rail_electric rail_fast ship" speed="22.22" length="118.05" width="3.75" shape="152.48,93.75,20.00 218.45,191.65,20.00"/>
  </edge>
  <edge id=":2.1_0" function="internal">
    <lane id=":2.1_0_0" index="0" disallow="pedestrian tram rail_urban rail rail_electric rail_fast ship" speed="22.22" length="0.30" width="3.75" shape="652.44,531.26 652.20,531.44"/>
    <lane id=":2.1_0_1" index="1" disallow="pedestrian tram rail_urban rail rail_electric rail_fast ship" speed="22.22" length="0.30" width="3.75" shape="650.24,528.23 649.99,528.40"/>
    <lane id=":2.1_0_2" index="2" disallow="pedestrian tram rail_urban rail rail_electric rail_fast ship" speed="22.22" length="0.30" width="3.75" shape="648.03,525.19 647.79,525.37"/>
  </edge>
  <edge id=":22.21_0" function="internal">
    <lane id=":22.21_0_0" index="0" disallow="pedestrian tram rail_urban rail rail_electric rail_fast ship" speed="13.89" length="0.30" width="3.75" shape="308.41,582.40,8.96 308.42,582.10,8.97"/>
  </edge>
  <edge id=":26.25_0" function="internal">
    <lane id=":26.25_0_0" index="0" disallow="pedestrian tram rail_urban rail rail_electric rail_fast ship" speed="16.67" length="0.30" width="3.75" shape="534.68,435.06,10.06 534.98,435.13,10.05"/>
  </edge>
  <edge id=":3_0" function="internal">
    <lane id=":3_0_0" index="0" disallow="pedestrian tram rail_urban rail rail_electric rail_fast ship" speed="22.22" length="101.08" width="3.75" shape="1059.96,1236.28,20.00 988.50,1164.80,20.00"/>
  </edge>
  <edge id=":3_1" function="internal">
    <lane id=":3_1_0" index="0" disallow="pedestrian tram rail_urban rail rail_electric rail_fast ship" speed="22.22" length="101.16" width="3.75" shape="1059.96,1236.28,20.00 991.38,1161.93,20.00"/>
    <lane id=":3_1_1" index="1" disallow="pedestrian tram rail_urban rail rail_electric rail_fast ship" speed="22.22" length="101.16" width="3.75" shape="1062.72,1233.74,20.00 994.13,1159.38,20.00"/>
    <lane id=":3_1_2" index="2" disallow="pedestrian tram rail_urban rail rail_electric rail_fast ship" speed="22.22" length="101.16" width="3.75" shape="1065.48,1231.20,20.00 996.89,1156.84,20.00"/>
  </edge>
  <edge id=":30.29_0" function="internal">
    <lane id=":30.29_0_0" index="0" disallow="pedestrian tram rail_urban rail rail_electric rail_fast ship" speed="16.67" length="0.30" width="3.75" shape="857.17,771.14,11.55 857.15,771.44,11.56"/>
  </edge>
  <edge id=":33.32_0" function="internal">
    <lane id=":33.32_0_0" index="0" disallow="pedestrian tram rail_urban rail rail_electric rail_fast ship" speed="13.89" length="0.30" width="3.75" shape="891.77,830.59,8.04 891.69,830.88,8.04"/>
  </edge>
  <edge id=":35.34_0" function="internal">
    <lane id=":35.34_0_0" index="0" disallow="pedestrian tram rail_urban rail rail_electric rail_fast ship" speed="19.44" length="0.30" width="3.75" shape="592.10,755.15,9.51 591.80,755.13,9.51"/>
  </edge>
  <edge id=":37.36_0" function="internal">
    <lane id=":37.36_0_0" index="0" disallow="pedestrian tram rail_urban rail rail_electric rail_fast ship" speed="13.89" length="0.30" width="3.75" shape="-1.31,385.20,8.00 -1.29,384.90,8.00"/>
  </edge>
  <edge id=":39.38_0" function="internal">
    <lane id=":39.38_0_0" index="0" disallow="pedestrian tram rail_urban rail rail_electric rail_fast ship" speed="13.89" length="0.30" width="3.75" shape="646.36,291.71,9.29 646.65,291.78,9.30"/>
  </edge>
  <edge id=":4_0" function="internal">
    <lane id=":4_0_0" index="0" disallow="pedestrian tram rail_urban rail rail_electric rail_fast ship" speed="22.22" length="91.47" width="3.75" shape="277.77,851.29,0.00 266.47,860.02,0.00 244.83,877.31,0.00 221.87,895.96,0.00 206.62,908.76"/>
  </edge>
  <edge id=":4_1" function="internal">
    <lane id=":4_1_0" index="0" disallow="pedestrian tram rail_urban rail rail_electric rail_fast ship" speed="22.22" length="91.15" width="3.75" shape="274.72,848.20 206.62,908.76"/>
    <lane id=":4_1_1" index="1" disallow="pedestrian tram rail_urban rail rail_electric rail_fast ship" speed="22.22" length="91.15" width="3.75" shape="272.24,845.40 204.12,905.96"/>
    <lane id=":4_1_2" index="2" disallow="pedestrian tram rail_urban rail rail_electric rail_fast ship" speed="22.22" length="91.15" width="3.75" shape="269.75,842.59 201.63,903.16"/>
  </edge>
  <edge id=":5_0" function="internal">
    <lane id=":5_0_0" index="0" disallow="pedestrian tram rail_urban rail rail_electric rail_fast ship" speed="22.22" length="3.00" width="3.75" shape="690.14,944.15,12.04 687.57,942.60,11.96"/>
  </edge>
  <edge id=":5_1" function="internal">
    <lane id=":5_1_0" index="0" disallow="pedestrian tram rail_urban rail rail_electric rail_fast ship" speed="18.06" length="3.00" width="3.75" shape="690.14,944.15,12.04 687.57,942.60,12.00"/>
  </edge>
  <edge id=":6_0" function="internal">
    <lane id=":6_0_0" index="0" disallow="pedestrian tram rail_urban rail rail_electric rail_fast ship" speed="18.06" length="90.23" width="3.75" shape="240.12,258.20,20.00 232.94,246.07,20.00 218.83,222.73,20.00 203.60,197.89,20.00 193.03,181.24,20.00"/>
  </edge>
  <edge id=":6_1" function="internal">
    <lane id=":6_1_0" index="0" disallow="pedestrian tram rail_urban rail rail_electric rail_fast ship" speed="22.22" length="89.95" width="3.75" shape="243.48,255.73,20.00 193.03,181.24,20.00"/>
    <lane id=":6_1_1" index="1" disallow="pedestrian tram rail_urban rail rail_electric rail_fast ship" speed="22.22" length="89.95" width="3.75" shape="246.58,253.62,20.00 196.14,179.14,20.00"/>
    <lane id=":6_1_2" index="2" disallow="pedestrian tram rail_urban rail rail_electric rail_fast ship" speed="22.22" length="89.95" width="3.75" shape="249.69,251.51,20.00 199.25,177.04,20.00"/>
  </edge>
  <edge id=":6.5_0" function="internal">
    <lane id=":6.5_0_0" index="0" disallow="pedestrian tram rail_urban rail rail_electric rail_fast ship" speed="22.22" length="0.30" width="3.75" shape="638.82,513.04 639.06,512.86"/>
    <lane id=":6.5_0_1" index="1" disallow="pedestrian tram rail_urban rail rail_electric rail_fast ship" speed="22.22" length="0.30" width="3.75" shape="641.02,516.07 641.27,515.89"/>
    <lane id=":6.5_0_2" index="2" disallow="pedestrian tram rail_urban rail rail_electric rail_fast ship" speed="22.22" length="0.30" width="3.75" shape="643.23,519.10 643.47,518.93"/>
  </edge>
  <edge id=":7_0" function="internal">
    <lane id=":7_0_0" index="0" disallow="pedestrian tram rail_urban rail rail_electric rail_fast ship" speed="13.89" length="3.00" width="3.75" shape="294.20,661.28,6.47 294.96,658.39,6.57"/>
  </edge>
  <edge id=":7_1" function="internal">
    <lane id=":7_1_0" index="0" disallow="pedestrian tram rail_urban rail rail_electric rail_fast ship" speed="13.89" length="3.00" width="3.75" shape="294.20,661.28,6.47 294.97,658.38,6.52"/>
  </edge>
  <edge id=":8_0" function="internal">
    <lane id=":8_0_0" index="0" disallow="pedestrian tram rail_urban rail rail_electric rail_fast ship" speed="19.44" length="141.98" width="3.75" shape="899.97,344.12,0.00 1025.48,277.75"/>
  </edge>
  <edge id=":8_1" function="internal">
    <lane id=":8_1_0" index="0" disallow="pedestrian tram rail_urban rail rail_electric rail_fast ship" speed="22.22" length="141.78" width="3.75" shape="902.02,347.57 1025.48,277.75"/>
    <lane id=":8_1_1" index="1" disallow="pedestrian tram rail_urban rail rail_electric rail_fast ship" speed="22.22" length="141.78" width="3.75" shape="903.89,350.82 1027.31,281.03"/>
    <lane id=":8_1_2" index="2" disallow="pedestrian tram rail_urban rail rail_electric rail_fast ship" speed="22.22" length="141.78" width="3.75" shape="905.76,354.07 1029.13,284.30"/>
  </edge>
  <edge id=":9_0" function="internal">
    <lane id=":9_0_0" index="0" disallow="pedestrian tram rail_urban rail rail_electric rail_fast ship" speed="16.67" length="3.00" width="3.75" shape="470.11,409.58,12.05 472.75,411.00,11.97"/>
  </edge>
  <edge id=":9_1" function="internal">
    <lane id=":9_1_0" index="0" disallow="pedestrian tram rail_urban rail rail_electric rail_fast ship" speed="15.28" length="3.01" width="3.75" shape="470.11,409.58,12.05 472.75,411.01,12.01"/>
  </edge>
  <edge id=":9.10_0" function="internal">
    <lane id=":9.10_0_0" index="0" disallow="pedestrian tram rail_urban rail rail_electric rail_fast ship" speed="22.22" length="0.30" width="3.75" shape="518.53,600.86,20.00 518.71,601.09,20.00"/>
    <lane id=":9.10_0_1" index="1" disallow="pedestrian tram rail_urban rail rail_electric rail_fast ship" speed="22.22" length="0.30" width="3.75" shape="515.61,603.21,20.00 515.80,603.44,20.00"/>
    <lane id=":9.10_0_2" index="2" disallow="pedestrian tram rail_urban rail rail_electric rail_fast ship" speed="22.22" length="0.30" width="3.75" shape="512.69,605.57,20.00 512.88,605.80,20.00"/>
  </edge>
  <edge id="-0" from="0.begin" to="0" priority="1" type="driving" shape="1186.21,202.87 1185.14,203.51 1184.04,204.16 1182.93,204.82 1181.79,205.48 1180.64,206.16 1179.46,206.85 1178.27,207.55 1177.05,208.26 1175.81,208.97 1174.56,209.70 1173.28,210.44 1171.99,211.18 1170.68,211.94 1169.34,212.71 1167.99,213.48 1166.62,214.27 1165.23,215.06 1163.82,215.86 1162.40,216.68 1160.95,217.50 1159.49,218.33 1158.01,219.17 1156.51,220.02 1154.99,220.88 1153.46,221.75 1151.91,222.62 1150.34,223.51 1148.75,224.40 1147.15,225.30 1145.53,226.21 1143.89,227.13 1142.24,228.06 1140.57,229.00 1138.89,229.94 1137.18,230.90 1135.47,231.86 1133.73,232.83 1131.98,233.81 1130.22,234.79 1128.44,235.79 1126.64,236.79 1124.83,237.80 1123.00,238.82 1121.16,239.84 1119.30,240.88 1117.43,241.92 1115.55,242.97 1113.65,244.02 1111.74,245.09 1109.81,246.16 1107.87,247.24 1105.91,248.33 1103.94,249.42 1101.96,250.52 1099.96,251.63 1097.95,252.75 1095.93,253.87 1093.90,255.00 1091.85,256.14 1089.79,257.28 1087.71,258.43 1085.63,259.59 1083.53,260.75 1081.42,261.92 1079.30,263.10 1077.17,264.29 1075.02,265.48 1072.86,266.67 1070.70,267.88 1068.52,269.09 1066.33,270.30 1064.12,271.53 1061.91,272.75 1059.69,273.99 1057.46,275.23 1055.21,276.48">
    <lane id="-0_0" index="0" disallow="pedestrian tram rail_urban rail rail_electric rail_fast ship" speed="22.22" length="146.41" width="3.75" shape="1191.00,210.93 1189.92,211.58 1188.81,212.23 1187.69,212.89 1186.54,213.57 1185.38,214.25 1184.19,214.94 1182.99,215.65 1181.76,216.36 1180.52,217.08 1179.25,217.81 1177.97,218.56 1176.67,219.31 1175.35,220.07 1174.01,220.84 1172.65,221.62 1171.28,222.40 1169.88,223.20 1168.47,224.01 1167.04,224.82 1165.59,225.65 1164.12,226.48 1162.63,227.33 1161.13,228.18 1159.61,229.04 1158.07,229.91 1156.52,230.79 1154.94,231.67 1153.35,232.57 1151.75,233.47 1150.13,234.39 1148.49,235.31 1146.83,236.24 1145.16,237.17 1143.47,238.12 1141.76,239.08 1140.04,240.04 1138.31,241.01 1136.56,241.99 1134.79,242.98 1133.00,243.97 1131.21,244.98 1129.39,245.99 1127.57,247.01 1125.72,248.03 1123.87,249.07 1121.99,250.11 1120.11,251.16 1118.21,252.22 1116.29,253.28 1114.36,254.35 1112.42,255.43 1110.46,256.52 1108.49,257.62 1106.51,258.72 1104.51,259.83 1102.50,260.94 1100.48,262.07 1098.45,263.20 1096.40,264.33 1094.34,265.48 1092.26,266.63 1090.18,267.79 1088.08,268.95 1085.97,270.12 1083.85,271.30 1081.72,272.48 1079.57,273.67 1077.41,274.87 1075.25,276.07 1073.07,277.28 1070.88,278.50 1068.68,279.72 1066.46,280.95 1064.24,282.18 1063.27,282.72" type="driving"/>
    <lane id="-0_1" index="1" disallow="pedestrian tram rail_urban rail rail_electric rail_fast ship" speed="22.22" length="146.41" width="3.75" shape="1189.08,207.71 1188.01,208.35 1186.90,209.00 1185.78,209.66 1184.64,210.33 1183.48,211.02 1182.30,211.71 1181.10,212.41 1179.88,213.12 1178.64,213.84 1177.38,214.57 1176.10,215.31 1174.80,216.06 1173.48,216.82 1172.14,217.58 1170.79,218.36 1169.41,219.15 1168.02,219.95 1166.61,220.75 1165.18,221.57 1163.73,222.39 1162.27,223.22 1160.78,224.06 1159.28,224.91 1157.76,225.77 1156.23,226.64 1154.67,227.52 1153.10,228.41 1151.51,229.30 1149.91,230.20 1148.29,231.12 1146.65,232.04 1144.99,232.97 1143.32,233.90 1141.64,234.85 1139.93,235.80 1138.21,236.77 1136.48,237.74 1134.73,238.72 1132.96,239.70 1131.18,240.70 1129.38,241.70 1127.57,242.71 1125.74,243.73 1123.90,244.76 1122.04,245.79 1120.17,246.83 1118.28,247.88 1116.38,248.94 1114.47,250.00 1112.54,251.08 1110.60,252.16 1108.64,253.24 1106.67,254.34 1104.69,255.44 1102.69,256.55 1100.68,257.66 1098.66,258.79 1096.63,259.92 1094.58,261.05 1092.52,262.20 1090.44,263.35 1088.36,264.51 1086.26,265.67 1084.15,266.84 1082.03,268.02 1079.90,269.20 1077.75,270.39 1075.59,271.59 1073.43,272.79 1071.25,274.00 1069.06,275.22 1066.86,276.44 1064.64,277.67 1062.42,278.91 1061.45,279.45" type="driving"/>
    <lane id="-0_2" index="2" disallow="pedestrian tram rail_urban rail rail_electric rail_fast ship" speed="22.22" length="146.41" width="3.75" shape="1187.17,204.49 1186.09,205.12 1185.00,205.77 1183.88,206.43 1182.74,207.10 1181.59,207.78 1180.41,208.47 1179.21,209.17 1177.99,209.88 1176.76,210.60 1175.50,211.32 1174.22,212.06 1172.93,212.81 1171.61,213.57 1170.28,214.33 1168.92,215.11 1167.55,215.89 1166.16,216.69 1164.75,217.49 1163.32,218.31 1161.88,219.13 1160.42,219.96 1158.93,220.80 1157.43,221.65 1155.92,222.51 1154.38,223.38 1152.83,224.25 1151.26,225.14 1149.67,226.03 1148.07,226.94 1146.45,227.85 1144.81,228.77 1143.16,229.70 1141.49,230.63 1139.80,231.58 1138.10,232.53 1136.38,233.49 1134.65,234.46 1132.90,235.44 1131.13,236.43 1129.35,237.42 1127.55,238.43 1125.74,239.44 1123.91,240.45 1122.07,241.48 1120.22,242.51 1118.35,243.56 1116.46,244.61 1114.56,245.66 1112.65,246.73 1110.72,247.80 1108.78,248.88 1106.82,249.97 1104.85,251.06 1102.87,252.16 1100.87,253.27 1098.86,254.39 1096.84,255.51 1094.81,256.64 1092.76,257.78 1090.70,258.92 1088.62,260.07 1086.54,261.23 1084.44,262.39 1082.33,263.56 1080.21,264.74 1078.08,265.92 1075.93,267.12 1073.77,268.31 1071.61,269.52 1069.43,270.73 1067.24,271.94 1065.03,273.17 1062.82,274.39 1060.60,275.63 1059.63,276.17" type="driving"/>
  </edge>
  <edge id="-1" from="0" to="2.1" priority="1" type="driving" shape="1055.21,276.48 1053.64,277.35 1052.07,278.23 1050.48,279.11 1048.90,279.99 1047.31,280.87 1045.71,281.76 1044.11,282.65 1042.51,283.54 1040.90,284.44 1039.29,285.34 1037.67,286.24 1036.05,287.14 1034.42,288.05 1032.79,288.96 1031.15,289.87 1029.52,290.78 1027.87,291.70 1026.22,292.62 1024.57,293.54 1022.91,294.46 1021.25,295.39 1019.59,296.32 1017.92,297.25 1016.25,298.19 1014.57,299.12 1012.89,300.06 1011.21,301.01 1009.52,301.95 1007.83,302.90 1006.14,303.84 1004.44,304.80 1002.74,305.75 1001.03,306.71 999.33,307.66 997.61,308.62 995.90,309.59 994.18,310.55 992.46,311.52 990.73,312.49 989.01,313.46 987.28,314.43 985.54,315.41 983.80,316.38 982.07,317.36 980.32,318.35 978.58,319.33 976.83,320.31 975.08,321.30 973.32,322.29 971.57,323.28 969.81,324.28 968.05,325.27 966.28,326.27 964.52,327.27 962.75,328.27 960.98,329.27 959.20,330.28 957.43,331.28 955.65,332.29 953.87,333.30 952.09,334.31 950.30,335.33 948.52,336.34 946.73,337.36 944.94,338.38 943.15,339.40 941.35,340.42 939.56,341.44 937.76,342.47 935.96,343.50 934.16,344.52 932.36,345.55 930.55,346.59 928.75,347.62 926.94,348.65 925.13,349.69 923.32,350.73 921.51,351.76 919.70,352.80 917.88,353.85 916.07,354.89 914.25,355.93 912.44,356.98 910.62,358.02 908.80,359.07 906.98,360.12 905.16,361.17 903.34,362.22 901.52,363.28 899.69,364.33 897.87,365.39 896.05,366.44 894.22,367.50 892.40,368.56 890.57,369.62 888.74,370.68 886.92,371.74 885.09,372.80 883.26,373.87 881.44,374.93 879.61,376.00 877.78,377.06 875.95,378.13 874.12,379.20 872.30,380.27 870.47,381.34 868.64,382.41 866.81,383.48 864.98,384.56 863.16,385.63 861.33,386.70 859.50,387.78 857.68,388.86 855.85,389.93 854.03,391.01 852.20,392.09 850.38,393.17 848.55,394.25 846.73,395.33 844.91,396.41 843.08,397.49 841.26,398.57 839.44,399.65 837.62,400.73 835.81,401.82 833.99,402.90 832.17,403.99 830.36,405.07 828.54,406.16 826.73,407.24 824.92,408.33 823.11,409.41 821.30,410.50 819.49,411.59 817.68,412.67 815.88,413.76 814.08,414.85 812.27,415.94 810.47,417.03 808.68,418.12 806.88,419.20 805.08,420.29 803.29,421.38 801.50,422.47 799.71,423.56 797.92,424.65 796.14,425.74 794.35,426.83 792.57,427.92 790.79,429.01 789.02,430.10 787.24,431.19 785.47,432.28 783.70,433.37 781.93,434.46 780.16,435.55 778.40,436.64 776.64,437.73 774.88,438.82 773.13,439.91 771.38,440.99 769.63,442.08 767.88,443.17 766.13,444.26 764.39,445.35 762.65,446.43 760.92,447.52 759.19,448.61 757.46,449.70 755.73,450.78 754.01,451.87 752.29,452.95 750.57,454.04 748.86,455.12 747.15,456.21 745.44,457.29 743.74,458.37 742.04,459.46 740.34,460.54 738.65,461.62 736.96,462.70 735.27,463.78 733.59,464.86 731.91,465.94 730.24,467.02 728.57,468.10 726.90,469.18 725.24,470.25 723.58,471.33 721.92,472.40 720.27,473.48 718.63,474.55 716.99,475.62 715.35,476.70 713.71,477.77 712.08,478.84 710.46,479.91 708.84,480.97 707.22,482.04 705.61,483.11 704.00,484.17 702.40,485.24 700.80,486.30 699.21,487.36 697.62,488.43 696.04,489.49 694.46,490.55 692.89,491.60 691.32,492.66 689.76,493.72 688.20,494.77 686.64,495.83 685.10,496.88 683.55,497.93 682.02,498.98 680.48,500.03 678.96,501.08 677.43,502.12 675.92,503.17 674.41,504.21 672.90,505.26 671.40,506.30 669.91,507.34 668.42,508.37 666.94,509.41 665.46,510.45 663.99,511.48 662.52,512.51 661.06,513.54 659.61,514.57 658.16,515.60 656.72,516.63 655.29,517.65 653.86,518.68 652.43,519.70 651.02,520.72 649.61,521.74 648.20,522.75 646.81,523.77">