<?xml version="1.0" encoding="UTF-8"?><!-- generated on 2022-09-01 17:22:29 by Eclipse SUMO netconvert Version 1.13.0
<configuration xmlns:xsi="http://www.w3.org/2001/XMLSchema-instance" xsi:noNamespaceSchemaLocation="http://sumo.dlr.de/xsd/netconvertConfiguration.xsd">

    <input>
        <opendrive-files value="map\classification\3\15764775\15764775.xodr"/>
    </input>

    <output>
        <output-file value="C:\Users\LinGe\AppData\Local\Temp\tmpkxk15fxt\15764775.net.xml"/>
    </output>

    <processing>
        <geometry.max-grade.fix value="false"/>
    </processing>

    <tls_building>
        <tls.left-green.time value="0"/>
    </tls_building>

    <junctions>
        <rectangular-lane-cut value="true"/>
    </junctions>

    <report>
        <aggregate-warnings value="5"/>
    </report>

</configuration>
--><net junctionCornerDetail="5" limitTurnSpeed="5.50" rectangularLaneCut="true" version="1.9" xmlns:xsi="http://www.w3.org/2001/XMLSchema-instance" xsi:noNamespaceSchemaLocation="http://sumo.dlr.de/xsd/net_file.xsd">
  <location convBoundary="0.00,0.00,1319.82,808.51" netOffset="65.37,106.85" origBoundary="-65.37,-106.85,1254.45,701.66" projParameter="!"/>
  <type disallow="pedestrian tram rail_urban rail rail_electric rail_fast ship" id="bidirectional" priority="1" speed="1.39" width="3.65"/>
  <type disallow="all" discard="1" id="border" priority="0" speed="1.39" width="0.10"/>
  <type disallow="pedestrian tram rail_urban rail rail_electric rail_fast ship" id="driving" priority="1" speed="13.89" width="3.65"/>
  <type disallow="pedestrian tram rail_urban rail rail_electric rail_fast ship" id="entry" priority="1" speed="22.22" width="3.65"/>
  <type disallow="pedestrian tram rail_urban rail rail_electric rail_fast ship" id="exit" priority="1" speed="22.22" width="3.65"/>
  <type disallow="all" discard="1" id="median" priority="0" speed="1.39" width="0.10"/>
  <type allow="private emergency authority army vip passenger hov taxi bus coach delivery truck trailer motorcycle evehicle custom1 custom2" id="mwyEntry" priority="1" speed="22.22" width="3.65"/>
  <type allow="private emergency authority army vip passenger hov taxi bus coach delivery truck trailer motorcycle evehicle custom1 custom2" id="mwyExit" priority="1" speed="22.22" width="3.65"/>
  <type disallow="all" discard="1" id="none" priority="0" speed="1.39" width="1.00"/>
  <type allow="private emergency authority army vip passenger hov taxi bus coach delivery truck trailer motorcycle evehicle custom1 custom2" id="offRamp" priority="1" speed="22.22" width="3.65"/>
  <type allow="private emergency authority army vip passenger hov taxi bus coach delivery truck trailer motorcycle evehicle custom1 custom2" id="onRamp" priority="1" speed="22.22" width="3.65"/>
  <type disallow="pedestrian tram rail_urban rail rail_electric rail_fast ship" id="parking" priority="1" speed="1.39" width="2.50"/>
  <type allow="rail_urban rail rail_electric rail_fast" id="rail" priority="3" speed="33.33" width="3.65"/>
  <type disallow="all" id="restricted" priority="0" speed="13.89" width="3.65"/>
  <type allow="authority" id="roadWorks" priority="0" speed="1.39" width="3.65"/>
  <type disallow="all" discard="1" id="shoulder" priority="0" speed="1.39" width="1.00"/>
  <type allow="custom1" discard="1" id="special1" priority="1" speed="22.22" width="3.65"/>
  <type allow="custom2" discard="1" id="special2" priority="1" speed="22.22" width="3.65"/>
  <type allow="custom1 custom2" discard="1" id="special3" priority="1" speed="22.22" width="3.65"/>
  <type disallow="pedestrian tram rail_urban rail rail_electric rail_fast ship" id="stop" priority="1" speed="13.89" width="3.65"/>
  <type allow="tram" id="tram" priority="2" speed="13.89" width="3.65"/>
  <edge function="internal" id=":0_0">
    <lane disallow="pedestrian tram rail_urban rail rail_electric rail_fast ship" id=":0_0_0" index="0" length="93.30" shape="1106.20,251.39 1086.54,256.02 1057.26,263.41 1029.85,270.53 1015.79,274.37" speed="15.28" width="3.75"/>
  </edge>
  <edge function="internal" id=":0_1">
    <lane disallow="pedestrian tram rail_urban rail rail_electric rail_fast ship" id=":0_1_0" index="0" length="93.39" shape="1106.20,251.39 1014.79,270.32" speed="22.22" width="3.75"/>
    <lane disallow="pedestrian tram rail_urban rail rail_electric rail_fast ship" id=":0_1_1" index="1" length="93.39" shape="1105.46,247.71 1014.01,266.65" speed="22.22" width="3.75"/>
    <lane disallow="pedestrian tram rail_urban rail rail_electric rail_fast ship" id=":0_1_2" index="2" length="93.39" shape="1104.71,244.04 1013.23,262.98" speed="22.22" width="3.75"/>
  </edge>
  <edge function="internal" id=":1_0">
    <lane disallow="pedestrian tram rail_urban rail rail_electric rail_fast ship" id=":1_0_0" index="0" length="35.13" shape="531.47,411.19 521.43,415.90 512.58,420.96 505.64,425.58 501.30,428.96" speed="18.06" width="3.75"/>
  </edge>
  <edge function="internal" id=":1_1">
    <lane disallow="pedestrian tram rail_urban rail rail_electric rail_fast ship" id=":1_1_0" index="0" length="35.45" shape="531.47,411.19 498.76,424.77" speed="22.22" width="3.75"/>
    <lane disallow="pedestrian tram rail_urban rail rail_electric rail_fast ship" id=":1_1_1" index="1" length="35.45" shape="530.05,407.72 497.31,421.32" speed="22.22" width="3.75"/>
    <lane disallow="pedestrian tram rail_urban rail rail_electric rail_fast ship" id=":1_1_2" index="2" length="35.45" shape="528.62,404.25 495.86,417.86" speed="22.22" width="3.75"/>
  </edge>
  <edge function="internal" id=":10_0">
    <lane disallow="pedestrian tram rail_urban rail rail_electric rail_fast ship" id=":10_0_0" index="0" length="40.79" shape="193.97,136.43,20.00 190.02,131.42,20.00 183.30,123.63,20.00 174.99,114.78,20.00 166.25,106.59,20.00" speed="20.83" width="3.75"/>
  </edge>
  <edge function="internal" id=":10_1">
    <lane disallow="pedestrian tram rail_urban rail rail_electric rail_fast ship" id=":10_1_0" index="0" length="40.13" shape="196.85,132.56,20.00 166.25,106.59,20.00" speed="22.22" width="3.75"/>
    <lane disallow="pedestrian tram rail_urban rail rail_electric rail_fast ship" id=":10_1_1" index="1" length="40.13" shape="199.27,129.70,20.00 168.68,103.73,20.00" speed="22.22" width="3.75"/>
    <lane disallow="pedestrian tram rail_urban rail rail_electric rail_fast ship" id=":10_1_2" index="2" length="40.13" shape="201.70,126.84,20.00 171.11,100.88,20.00" speed="22.22" width="3.75"/>
  </edge>
  <edge function="internal" id=":11_0">
    <lane disallow="pedestrian tram rail_urban rail rail_electric rail_fast ship" id=":11_0_0" index="0" length="123.16" shape="910.22,265.87 1031.35,243.60" speed="20.83" width="3.75"/>
  </edge>
  <edge function="internal" id=":11_1">
    <lane disallow="pedestrian tram rail_urban rail rail_electric rail_fast ship" id=":11_1_0" index="0" length="122.93" shape="911.18,269.80 1031.35,243.60" speed="22.22" width="3.75"/>
    <lane disallow="pedestrian tram rail_urban rail rail_electric rail_fast ship" id=":11_1_1" index="1" length="122.93" shape="912.01,273.46 1032.12,247.27" speed="22.22" width="3.75"/>
    <lane disallow="pedestrian tram rail_urban rail rail_electric rail_fast ship" id=":11_1_2" index="2" length="122.93" shape="912.85,277.12 1032.89,250.95" speed="22.22" width="3.75"/>
  </edge>
  <edge function="internal" id=":12_0">
    <lane disallow="pedestrian tram rail_urban rail rail_electric rail_fast ship" id=":12_0_0" index="0" length="22.46" shape="728.17,524.90,19.91 726.52,520.01,19.93 723.70,515.55,19.95 719.68,511.52,19.97 714.48,507.91,20.00" speed="14.83" width="3.75"/>
  </edge>
  <edge function="internal" id=":12_1">
    <lane disallow="pedestrian tram rail_urban rail rail_electric rail_fast ship" id=":12_1_0" index="0" length="20.48" shape="732.16,518.25,20.00 714.48,507.91,20.00" speed="22.22" width="3.75"/>
    <lane disallow="pedestrian tram rail_urban rail rail_electric rail_fast ship" id=":12_1_1" index="1" length="20.48" shape="734.05,515.02,20.00 716.38,504.67,20.00" speed="22.22" width="3.75"/>
    <lane disallow="pedestrian tram rail_urban rail rail_electric rail_fast ship" id=":12_1_2" index="2" length="20.48" shape="735.95,511.78,20.00 718.28,501.44,20.00" speed="22.22" width="3.75"/>
  </edge>
  <edge function="internal" id=":13_0">
    <lane disallow="pedestrian tram rail_urban rail rail_electric rail_fast ship" id=":13_0_0" index="0" length="167.47" shape="386.51,444.15,0.00 542.14,382.29" speed="18.06" width="3.75"/>
  </edge>
  <edge function="internal" id=":13_1">
    <lane disallow="pedestrian tram rail_urban rail rail_electric rail_fast ship" id=":13_1_0" index="0" length="167.28" shape="388.08,447.77 542.14,382.29" speed="22.22" width="3.75"/>
    <lane disallow="pedestrian tram rail_urban rail rail_electric rail_fast ship" id=":13_1_1" index="1" length="167.28" shape="389.59,451.20 543.55,385.76" speed="22.22" width="3.75"/>
    <lane disallow="pedestrian tram rail_urban rail rail_electric rail_fast ship" id=":13_1_2" index="2" length="167.28" shape="391.11,454.63 544.95,389.24" speed="22.22" width="3.75"/>
  </edge>
  <edge function="internal" id=":14_0">
    <lane disallow="pedestrian tram rail_urban rail rail_electric rail_fast ship" id=":14_0_0" index="0" length="70.11" shape="470.58,318.80,20.00 478.81,326.04,20.00 494.37,339.16,20.00 511.59,353.22,20.00 524.75,363.28,20.00" speed="19.44" width="3.75"/>
  </edge>
  <edge function="internal" id=":14_1">
    <lane disallow="pedestrian tram rail_urban rail rail_electric rail_fast ship" id=":14_1_0" index="0" length="69.82" shape="468.23,322.51,20.00 524.75,363.28,20.00" speed="22.22" width="3.75"/>
    <lane disallow="pedestrian tram rail_urban rail rail_electric rail_fast ship" id=":14_1_1" index="1" length="69.82" shape="465.99,325.52,20.00 522.62,366.37,20.00" speed="22.22" width="3.75"/>
    <lane disallow="pedestrian tram rail_urban rail rail_electric rail_fast ship" id=":14_1_2" index="2" length="69.82" shape="463.75,328.53,20.00 520.48,369.45,20.00" speed="22.22" width="3.75"/>
  </edge>
  <edge function="internal" id=":15_0">
    <lane disallow="pedestrian tram rail_urban rail rail_electric rail_fast ship" id=":15_0_0" index="0" length="133.31" shape="904.47,298.84 884.06,303.03 842.91,311.80 799.96,321.16 774.20,327.13" speed="19.44" width="3.75"/>
  </edge>
  <edge function="internal" id=":15_1">
    <lane disallow="pedestrian tram rail_urban rail rail_electric rail_fast ship" id=":15_1_0" index="0" length="133.20" shape="903.30,294.94 774.20,327.13" speed="22.22" width="3.75"/>
    <lane disallow="pedestrian tram rail_urban rail rail_electric rail_fast ship" id=":15_1_1" index="1" length="133.20" shape="902.45,291.29 773.22,323.51" speed="22.22" width="3.75"/>
    <lane disallow="pedestrian tram rail_urban rail rail_electric rail_fast ship" id=":15_1_2" index="2" length="133.20" shape="901.61,287.63 772.23,319.89" speed="22.22" width="3.75"/>
  </edge>
  <edge function="internal" id=":15.14_0">
    <lane disallow="pedestrian tram rail_urban rail rail_electric rail_fast ship" id=":15.14_0_0" index="0" length="0.30" shape="548.19,379.24,20.00 548.43,379.41,20.00" speed="22.22" width="3.75"/>
    <lane disallow="pedestrian tram rail_urban rail rail_electric rail_fast ship" id=":15.14_0_1" index="1" length="0.30" shape="546.10,382.36,20.00 546.35,382.53,20.00" speed="22.22" width="3.75"/>
    <lane disallow="pedestrian tram rail_urban rail rail_electric rail_fast ship" id=":15.14_0_2" index="2" length="0.30" shape="544.02,385.48,20.00 544.28,385.65,20.00" speed="22.22" width="3.75"/>
  </edge>
  <edge function="internal" id=":2_0">
    <lane disallow="pedestrian tram rail_urban rail rail_electric rail_fast ship" id=":2_0_0" index="0" length="38.65" shape="195.89,534.85 206.23,529.50 215.99,523.58 223.89,518.22 228.67,514.52" speed="20.83" width="3.75"/>
  </edge>
  <edge function="internal" id=":2_1">
    <lane disallow="pedestrian tram rail_urban rail rail_electric rail_fast ship" id=":2_1_0" index="0" length="38.99" shape="195.89,534.85 231.31,518.55" speed="22.22" width="3.75"/>
    <lane disallow="pedestrian tram rail_urban rail rail_electric rail_fast ship" id=":2_1_1" index="1" length="38.99" shape="197.46,538.26 232.88,521.96" speed="22.22" width="3.75"/>
    <lane disallow="pedestrian tram rail_urban rail rail_electric rail_fast ship" id=":2_1_2" index="2" length="38.99" shape="199.03,541.67 234.44,525.37" speed="22.22" width="3.75"/>
  </edge>
  <edge function="internal" id=":21.20_0">
    <lane disallow="pedestrian tram rail_urban rail rail_electric rail_fast ship" id=":21.20_0_0" index="0" length="0.30" shape="535.82,398.34,20.00 535.56,398.17,20.00" speed="22.22" width="3.75"/>
    <lane disallow="pedestrian tram rail_urban rail rail_electric rail_fast ship" id=":21.20_0_1" index="1" length="0.30" shape="537.89,395.22,20.00 537.65,395.05,20.00" speed="22.22" width="3.75"/>
    <lane disallow="pedestrian tram rail_urban rail rail_electric rail_fast ship" id=":21.20_0_2" index="2" length="0.30" shape="539.97,392.10,20.00 539.73,391.93,20.00" speed="22.22" width="3.75"/>
  </edge>
  <edge function="internal" id=":25.24_0">
    <lane disallow="pedestrian tram rail_urban rail rail_electric rail_fast ship" id=":25.24_0_0" index="0" length="0.28" shape="889.90,416.10,8.70 889.92,416.38,8.72" speed="8.33" width="3.75"/>
  </edge>
  <edge function="internal" id=":27.26_0">
    <lane disallow="pedestrian tram rail_urban rail rail_electric rail_fast ship" id=":27.26_0_0" index="0" length="0.30" shape="531.30,520.89,8.76 531.00,520.86,8.75" speed="16.67" width="3.75"/>
  </edge>
  <edge function="internal" id=":29.28_0">
    <lane disallow="pedestrian tram rail_urban rail rail_electric rail_fast ship" id=":29.28_0_0" index="0" length="0.30" shape="262.61,373.75,7.87 262.59,373.46,7.89" speed="19.44" width="3.75"/>
  </edge>
  <edge function="internal" id=":3_0">
    <lane disallow="pedestrian tram rail_urban rail rail_electric rail_fast ship" id=":3_0_0" index="0" length="35.47" shape="767.99,305.25 778.61,301.83,0.02 788.16,297.96,0.03 795.80,294.31,0.05 800.64,291.60,0.06" speed="19.44" width="3.75"/>
  </edge>
  <edge function="internal" id=":3_1">
    <lane disallow="pedestrian tram rail_urban rail rail_electric rail_fast ship" id=":3_1_0" index="0" length="35.85" shape="767.99,305.25 802.70,296.06" speed="22.22" width="3.75"/>
    <lane disallow="pedestrian tram rail_urban rail rail_electric rail_fast ship" id=":3_1_1" index="1" length="35.85" shape="768.97,308.87 803.64,299.69" speed="22.22" width="3.75"/>
    <lane disallow="pedestrian tram rail_urban rail rail_electric rail_fast ship" id=":3_1_2" index="2" length="35.85" shape="769.96,312.48 804.57,303.32" speed="22.22" width="3.75"/>
  </edge>
  <edge function="internal" id=":3.2_0">
    <lane disallow="pedestrian tram rail_urban rail rail_electric rail_fast ship" id=":3.2_0_0" index="0" length="0.30" shape="675.95,356.46 675.67,356.56" speed="22.22" width="3.75"/>
    <lane disallow="pedestrian tram rail_urban rail rail_electric rail_fast ship" id=":3.2_0_1" index="1" length="0.30" shape="674.77,352.91 674.49,353.00" speed="22.22" width="3.75"/>
    <lane disallow="pedestrian tram rail_urban rail rail_electric rail_fast ship" id=":3.2_0_2" index="2" length="0.30" shape="673.59,349.35 673.30,349.44" speed="22.22" width="3.75"/>
  </edge>
  <edge function="internal" id=":31.30_0">
    <lane disallow="pedestrian tram rail_urban rail rail_electric rail_fast ship" id=":31.30_0_0" index="0" length="0.30" shape="562.71,259.30,10.92 563.01,259.35,10.91" speed="19.44" width="3.75"/>
  </edge>
  <edge function="internal" id=":33.32_0">
    <lane disallow="pedestrian tram rail_urban rail rail_electric rail_fast ship" id=":33.32_0_0" index="0" length="0.29" shape="540.16,596.54,9.45 540.42,596.67,9.47" speed="13.89" width="3.75"/>
  </edge>
  <edge function="internal" id=":35.34_0">
    <lane disallow="pedestrian tram rail_urban rail rail_electric rail_fast ship" id=":35.34_0_0" index="0" length="0.30" shape="66.35,490.30,8.05 66.60,490.48,8.04" speed="13.89" width="3.75"/>
  </edge>
  <edge function="internal" id=":37.36_0">
    <lane disallow="pedestrian tram rail_urban rail rail_electric rail_fast ship" id=":37.36_0_0" index="0" length="0.30" shape="573.86,8.80,10.47 573.57,8.86,10.48" speed="16.67" width="3.75"/>
  </edge>
  <edge function="internal" id=":39.38_0">
    <lane disallow="pedestrian tram rail_urban rail rail_electric rail_fast ship" id=":39.38_0_0" index="0" length="0.30" shape="1259.04,615.69,10.71 1259.26,615.49,10.70" speed="16.67" width="3.75"/>
  </edge>
  <edge function="internal" id=":4_0">
    <lane disallow="pedestrian tram rail_urban rail rail_electric rail_fast ship" id=":4_0_0" index="0" length="40.35" shape="201.52,106.74,20.00 210.96,113.99,19.97 220.91,120.69,19.93 229.52,126.03,19.90 234.97,129.23,19.88" speed="20.83" width="3.75"/>
  </edge>
  <edge function="internal" id=":4_1">
    <lane disallow="pedestrian tram rail_urban rail rail_electric rail_fast ship" id=":4_1_0" index="0" length="40.45" shape="201.52,106.74,20.00 232.40,132.85,20.00" speed="22.22" width="3.75"/>
    <lane disallow="pedestrian tram rail_urban rail rail_electric rail_fast ship" id=":4_1_1" index="1" length="40.45" shape="199.10,109.60,20.00 229.98,135.72,20.00" speed="22.22" width="3.75"/>
    <lane disallow="pedestrian tram rail_urban rail rail_electric rail_fast ship" id=":4_1_2" index="2" length="40.45" shape="196.67,112.46,20.00 227.56,138.59,20.00" speed="22.22" width="3.75"/>
  </edge>
  <edge function="internal" id=":5_0">
    <lane disallow="pedestrian tram rail_urban rail rail_electric rail_fast ship" id=":5_0_0" index="0" length="318.94" shape="633.14,432.90,20.00 681.29,460.43,20.00 775.04,513.56,20.00 867.23,565.65,20.00 910.69,590.03,20.00" speed="19.44" width="3.75"/>
  </edge>
  <edge function="internal" id=":5_1">
    <lane disallow="pedestrian tram rail_urban rail rail_electric rail_fast ship" id=":5_1_0" index="0" length="318.85" shape="633.14,432.90,20.00 908.54,593.38,20.00" speed="22.22" width="3.75"/>
    <lane disallow="pedestrian tram rail_urban rail rail_electric rail_fast ship" id=":5_1_1" index="1" length="318.85" shape="631.19,436.10,20.00 906.68,596.64,20.00" speed="22.22" width="3.75"/>
    <lane disallow="pedestrian tram rail_urban rail rail_electric rail_fast ship" id=":5_1_2" index="2" length="318.85" shape="629.24,439.31,20.00 904.83,599.90,20.00" speed="22.22" width="3.75"/>
  </edge>
  <edge function="internal" id=":6_0">
    <lane disallow="pedestrian tram rail_urban rail rail_electric rail_fast ship" id=":6_0_0" index="0" length="153.69" shape="1006.08,674.54,20.00 870.36,602.42,20.00" speed="19.44" width="3.75"/>
  </edge>
  <edge function="internal" id=":6_1">
    <lane disallow="pedestrian tram rail_urban rail rail_electric rail_fast ship" id=":6_1_0" index="0" length="153.79" shape="1006.08,674.54,20.00 872.17,598.87,20.00" speed="22.22" width="3.75"/>
    <lane disallow="pedestrian tram rail_urban rail rail_electric rail_fast ship" id=":6_1_1" index="1" length="153.79" shape="1007.91,671.27,20.00 874.03,595.61,20.00" speed="22.22" width="3.75"/>
    <lane disallow="pedestrian tram rail_urban rail rail_electric rail_fast ship" id=":6_1_2" index="2" length="153.79" shape="1009.75,668.00,20.00 875.88,592.35,20.00" speed="22.22" width="3.75"/>
  </edge>
  <edge function="internal" id=":7_0">
    <lane disallow="pedestrian tram rail_urban rail rail_electric rail_fast ship" id=":7_0_0" index="0" length="81.12" shape="512.02,382.14,20.00 443.98,337.96,19.81" speed="18.06" width="3.75"/>
  </edge>
  <edge function="internal" id=":7_1">
    <lane disallow="pedestrian tram rail_urban rail rail_electric rail_fast ship" id=":7_1_0" index="0" length="81.41" shape="512.02,382.14,20.00 445.99,334.27,20.00" speed="22.22" width="3.75"/>
    <lane disallow="pedestrian tram rail_urban rail rail_electric rail_fast ship" id=":7_1_1" index="1" length="81.41" shape="514.16,379.05,20.00 448.24,331.28,20.00" speed="22.22" width="3.75"/>
    <lane disallow="pedestrian tram rail_urban rail rail_electric rail_fast ship" id=":7_1_2" index="2" length="81.41" shape="516.29,375.97,20.00 450.49,328.28,20.00" speed="22.22" width="3.75"/>
  </edge>
  <edge function="internal" id=":8_0">
    <lane disallow="pedestrian tram rail_urban rail rail_electric rail_fast ship" id=":8_0_0" index="0" length="44.56" shape="1090.78,690.70,19.82 1096.24,695.03,19.85 1105.52,701.96,19.89 1116.53,709.66,19.95 1127.21,716.29,20.00" speed="15.28" width="3.75"/>
  </edge>
  <edge function="internal" id=":8_1">
    <lane disallow="pedestrian tram rail_urban rail rail_electric rail_fast ship" id=":8_1_0" index="0" length="44.03" shape="1088.78,694.82,20.00 1127.21,716.29,20.00" speed="22.22" width="3.75"/>
    <lane disallow="pedestrian tram rail_urban rail rail_electric rail_fast ship" id=":8_1_1" index="1" length="44.03" shape="1086.95,698.09,20.00 1125.39,719.57,20.00" speed="22.22" width="3.75"/>
    <lane disallow="pedestrian tram rail_urban rail rail_electric rail_fast ship" id=":8_1_2" index="2" length="44.03" shape="1085.12,701.36,20.00 1123.56,722.84,20.00" speed="22.22" width="3.75"/>
  </edge>
  <edge function="internal" id=":9_0">
    <lane disallow="pedestrian tram rail_urban rail rail_electric rail_fast ship" id=":9_0_0" index="0" length="43.58" shape="183.81,570.36,0.13 177.25,572.24,0.11 166.51,575.55,0.08 154.11,579.78,0.04 142.60,584.44" speed="19.44" width="3.75"/>
  </edge>
  <edge function="internal" id=":9_1">
    <lane disallow="pedestrian tram rail_urban rail rail_electric rail_fast ship" id=":9_1_0" index="0" length="43.08" shape="181.73,566.41 142.60,584.44" speed="22.22" width="3.75"/>
    <lane disallow="pedestrian tram rail_urban rail rail_electric rail_fast ship" id=":9_1_1" index="1" length="43.08" shape="180.16,563.00 141.04,581.04" speed="22.22" width="3.75"/>
    <lane disallow="pedestrian tram rail_urban rail rail_electric rail_fast ship" id=":9_1_2" index="2" length="43.08" shape="178.59,559.60 139.47,577.63" speed="22.22" width="3.75"/>
  </edge>
  <edge function="internal" id=":9.8_0">
    <lane disallow="pedestrian tram rail_urban rail rail_electric rail_fast ship" id=":9.8_0_0" index="0" length="0.30" shape="668.48,334.98 668.77,334.88" speed="22.22" width="3.75"/>
    <lane disallow="pedestrian tram rail_urban rail rail_electric rail_fast ship" id=":9.8_0_1" index="1" length="0.30" shape="669.66,338.53 669.95,338.44" speed="22.22" width="3.75"/>
    <lane disallow="pedestrian tram rail_urban rail rail_electric rail_fast ship" id=":9.8_0_2" index="2" length="0.30" shape="670.85,342.09 671.13,342.00" speed="22.22" width="3.75"/>
  </edge>
  <edge from="0.begin" id="-0" priority="1" shape="1266.00,208.74 1264.78,209.03 1263.55,209.31 1262.29,209.60 1261.01,209.90 1259.71,210.19 1258.38,210.49 1257.04,210.80 1255.68,211.10 1254.30,211.41 1252.89,211.72 1251.47,212.03 1250.03,212.35 1248.57,212.67 1247.09,212.99 1245.58,213.32 1244.06,213.65 1242.52,213.98 1240.97,214.32 1239.39,214.65 1237.79,214.99 1236.18,215.34 1234.54,215.68 1232.89,216.03 1231.22,216.39 1229.53,216.74 1227.83,217.10 1226.10,217.46 1224.36,217.82 1222.60,218.19 1220.83,218.56 1219.04,218.93 1217.22,219.31 1215.40,219.69 1213.55,220.07 1211.69,220.45 1209.81,220.84 1207.92,221.22 1206.01,221.62 1204.08,222.01 1202.14,222.41 1200.18,222.81 1198.21,223.21 1196.22,223.62 1194.22,224.03 1192.20,224.44 1190.16,224.85 1188.11,225.27 1186.05,225.68 1183.97,226.11 1181.87,226.53 1179.76,226.96 1177.64,227.39 1175.50,227.82 1173.35,228.25 1171.18,228.69 1169.00,229.13 1166.81,229.58 1164.60,230.02 1162.38,230.47 1160.15,230.92 1157.90,231.37 1155.64,231.83 1153.37,232.29 1151.09,232.75 1148.79,233.21 1146.48,233.68 1144.16,234.14 1141.82,234.62 1139.48,235.09 1137.12,235.56 1134.75,236.04 1132.37,236.52 1129.97,237.01 1127.57,237.49 1125.15,237.98 1122.73,238.47 1120.29,238.97 1117.84,239.46 1115.38,239.96 1112.91,240.46 1110.43,240.96 1107.94,241.47 1105.44,241.98 1102.93,242.49 1100.41,243.00" to="0" type="driving">
    <lane disallow="pedestrian tram rail_urban rail rail_electric rail_fast ship" id="-0_0" index="0" length="165.25" shape="1268.13,217.87 1266.91,218.16 1265.66,218.45 1264.39,218.74 1263.09,219.04 1261.78,219.34 1260.45,219.64 1259.10,219.94 1257.72,220.25 1256.33,220.56 1254.92,220.87 1253.49,221.19 1252.04,221.51 1250.57,221.83 1249.08,222.15 1247.57,222.48 1246.04,222.81 1244.50,223.15 1242.93,223.48 1241.35,223.82 1239.75,224.16 1238.13,224.51 1236.49,224.86 1234.83,225.21 1233.15,225.56 1231.46,225.92 1229.75,226.28 1228.02,226.64 1226.28,227.00 1224.52,227.37 1222.74,227.74 1220.94,228.11 1219.12,228.49 1217.29,228.87 1215.45,229.25 1213.58,229.63 1211.70,230.02 1209.81,230.41 1207.89,230.80 1205.96,231.20 1204.02,231.59 1202.06,231.99 1200.08,232.40 1198.09,232.80 1196.09,233.21 1194.06,233.62 1192.03,234.04 1189.98,234.45 1187.91,234.87 1185.83,235.29 1183.73,235.72 1181.62,236.15 1179.50,236.58 1177.36,237.01 1175.21,237.44 1173.04,237.88 1170.86,238.32 1168.67,238.76 1166.46,239.21 1164.24,239.66 1162.00,240.11 1159.76,240.56 1157.50,241.02 1155.23,241.48 1152.94,241.94 1150.64,242.40 1148.33,242.87 1146.01,243.33 1143.68,243.80 1141.33,244.28 1138.97,244.75 1136.60,245.23 1134.22,245.71 1131.83,246.20 1129.43,246.68 1127.01,247.17 1124.59,247.66 1122.15,248.15 1119.70,248.65 1117.24,249.15 1114.78,249.65 1112.30,250.15 1109.81,250.66 1107.31,251.16 1106.20,251.39" speed="22.22" type="driving" width="3.75"/>
    <lane disallow="pedestrian tram rail_urban rail rail_electric rail_fast ship" id="-0_1" index="1" length="165.25" shape="1267.28,214.22 1266.06,214.51 1264.81,214.79 1263.55,215.09 1262.26,215.38 1260.95,215.68 1259.62,215.98 1258.28,216.28 1256.91,216.59 1255.52,216.90 1254.11,217.21 1252.68,217.53 1251.24,217.85 1249.77,218.17 1248.28,218.49 1246.78,218.82 1245.25,219.15 1243.71,219.48 1242.15,219.82 1240.56,220.15 1238.96,220.50 1237.35,220.84 1235.71,221.19 1234.05,221.54 1232.38,221.89 1230.69,222.25 1228.98,222.61 1227.26,222.97 1225.51,223.33 1223.75,223.70 1221.97,224.07 1220.18,224.44 1218.36,224.82 1216.54,225.19 1214.69,225.58 1212.83,225.96 1210.95,226.35 1209.05,226.74 1207.14,227.13 1205.21,227.52 1203.27,227.92 1201.31,228.32 1199.33,228.72 1197.34,229.13 1195.34,229.54 1193.32,229.95 1191.28,230.36 1189.23,230.78 1187.16,231.20 1185.08,231.62 1182.99,232.04 1180.88,232.47 1178.75,232.90 1176.61,233.33 1174.46,233.77 1172.30,234.21 1170.12,234.65 1167.92,235.09 1165.72,235.53 1163.50,235.98 1161.26,236.43 1159.02,236.89 1156.76,237.34 1154.48,237.80 1152.20,238.26 1149.90,238.72 1147.59,239.19 1145.27,239.66 1142.94,240.13 1140.59,240.60 1138.23,241.08 1135.86,241.56 1133.48,242.04 1131.09,242.52 1128.68,243.01 1126.27,243.49 1123.84,243.99 1121.41,244.48 1118.96,244.97 1116.50,245.47 1114.03,245.97 1111.55,246.47 1109.06,246.98 1106.56,247.49 1105.46,247.71" speed="22.22" type="driving" width="3.75"/>
    <lane disallow="pedestrian tram rail_urban rail rail_electric rail_fast ship" id="-0_2" index="2" length="165.25" shape="1266.43,210.57 1265.21,210.85 1263.97,211.14 1262.71,211.43 1261.42,211.73 1260.12,212.02 1258.80,212.32 1257.45,212.62 1256.09,212.93 1254.70,213.24 1253.30,213.55 1251.88,213.86 1250.43,214.18 1248.97,214.50 1247.48,214.83 1245.98,215.15 1244.46,215.48 1242.92,215.81 1241.36,216.15 1239.78,216.49 1238.18,216.83 1236.57,217.17 1234.93,217.52 1233.28,217.87 1231.61,218.22 1229.92,218.58 1228.21,218.93 1226.49,219.30 1224.75,219.66 1222.99,220.03 1221.21,220.40 1219.42,220.77 1217.60,221.14 1215.78,221.52 1213.93,221.90 1212.07,222.29 1210.19,222.67 1208.30,223.06 1206.39,223.45 1204.46,223.85 1202.52,224.25 1200.56,224.65 1198.59,225.05 1196.60,225.45 1194.59,225.86 1192.57,226.27 1190.53,226.69 1188.48,227.10 1186.42,227.52 1184.34,227.94 1182.24,228.37 1180.13,228.80 1178.01,229.23 1175.87,229.66 1173.72,230.09 1171.55,230.53 1169.37,230.97 1167.18,231.41 1164.97,231.86 1162.75,232.31 1160.52,232.76 1158.27,233.21 1156.02,233.67 1153.74,234.12 1151.46,234.58 1149.16,235.05 1146.85,235.51 1144.53,235.98 1142.19,236.45 1139.85,236.93 1137.49,237.40 1135.12,237.88 1132.74,238.36 1130.35,238.84 1127.94,239.33 1125.53,239.82 1123.10,240.31 1120.66,240.80 1118.21,241.30 1115.76,241.80 1113.29,242.30 1110.81,242.80 1108.32,243.30 1105.82,243.81 1104.71,244.04" speed="22.22" type="driving" width="3.75"/>
  </edge>