<?xml version='1.0' encoding='UTF-8'?>
<!-- generated on 2022-09-25 13:24:36 by Eclipse SUMO netconvert Version 1.13.0
<configuration xmlns:xsi="http://www.w3.org/2001/XMLSchema-instance" xsi:noNamespaceSchemaLocation="http://sumo.dlr.de/xsd/netconvertConfiguration.xsd">

    <input>
        <opendrive-files value="map_new_new\14\1\1.xodr"/>
    </input>

    <output>
        <output-file value="C:\Users\LinGe\AppData\Local\Temp\tmpq1fu3r8l\1.net.xml"/>
    </output>

    <processing>
        <geometry.max-grade.fix value="false"/>
    </processing>

    <tls_building>
        <tls.left-green.time value="0"/>
    </tls_building>

    <junctions>
        <rectangular-lane-cut value="true"/>
    </junctions>

    <report>
        <aggregate-warnings value="5"/>
    </report>

</configuration>
-->
<net xmlns:xsi="http://www.w3.org/2001/XMLSchema-instance" version="1.9" junctionCornerDetail="5" rectangularLaneCut="true" limitTurnSpeed="5.50" xsi:noNamespaceSchemaLocation="http://sumo.dlr.de/xsd/net_file.xsd">
  <location netOffset="1.56,101.26" convBoundary="0.00,0.00,1102.73,1302.51" origBoundary="-1.56,-101.26,1101.18,1201.26" projParameter="!"/>
  <type id="bidirectional" priority="1" speed="1.39" disallow="pedestrian tram rail_urban rail rail_electric rail_fast ship" width="3.65"/>
  <type id="border" priority="0" speed="1.39" disallow="all" discard="1" width="0.10"/>
  <type id="driving" priority="1" speed="13.89" disallow="pedestrian tram rail_urban rail rail_electric rail_fast ship" width="3.65"/>
  <type id="entry" priority="1" speed="22.22" disallow="pedestrian tram rail_urban rail rail_electric rail_fast ship" width="3.65"/>
  <type id="exit" priority="1" speed="22.22" disallow="pedestrian tram rail_urban rail rail_electric rail_fast ship" width="3.65"/>
  <type id="median" priority="0" speed="1.39" disallow="all" discard="1" width="0.10"/>
  <type id="mwyEntry" priority="1" speed="22.22" allow="private emergency authority army vip passenger hov taxi bus coach delivery truck trailer motorcycle evehicle custom1 custom2" width="3.65"/>
  <type id="mwyExit" priority="1" speed="22.22" allow="private emergency authority army vip passenger hov taxi bus coach delivery truck trailer motorcycle evehicle custom1 custom2" width="3.65"/>
  <type id="none" priority="0" speed="1.39" disallow="all" discard="1" width="1.00"/>
  <type id="offRamp" priority="1" speed="22.22" allow="private emergency authority army vip passenger hov taxi bus coach delivery truck trailer motorcycle evehicle custom1 custom2" width="3.65"/>
  <type id="onRamp" priority="1" speed="22.22" allow="private emergency authority army vip passenger hov taxi bus coach delivery truck trailer motorcycle evehicle custom1 custom2" width="3.65"/>
  <type id="parking" priority="1" speed="1.39" disallow="pedestrian tram rail_urban rail rail_electric rail_fast ship" width="2.50"/>
  <type id="rail" priority="3" speed="33.33" allow="rail_urban rail rail_electric rail_fast" width="3.65"/>
  <type id="restricted" priority="0" speed="13.89" disallow="all" width="3.65"/>
  <type id="roadWorks" priority="0" speed="1.39" allow="authority" width="3.65"/>
  <type id="shoulder" priority="0" speed="1.39" disallow="all" discard="1" width="1.00"/>
  <type id="special1" priority="1" speed="22.22" allow="custom1" discard="1" width="3.65"/>
  <type id="special2" priority="1" speed="22.22" allow="custom2" discard="1" width="3.65"/>
  <type id="special3" priority="1" speed="22.22" allow="custom1 custom2" discard="1" width="3.65"/>
  <type id="stop" priority="1" speed="13.89" disallow="pedestrian tram rail_urban rail rail_electric rail_fast ship" width="3.65"/>
  <type id="tram" priority="2" speed="13.89" allow="tram" width="3.65"/>
  <edge id=":0_0" function="internal">
    <lane id=":0_0_0" index="0" disallow="pedestrian tram rail_urban rail rail_electric rail_fast ship" speed="15.28" length="29.63" width="3.75" shape="422.26,648.66 414.68,655.36 409.04,661.48 405.22,666.76 403.08,670.92"/>
  </edge>
  <edge id=":0_1" function="internal">
    <lane id=":0_1_0" index="0" disallow="pedestrian tram rail_urban rail rail_electric rail_fast ship" speed="22.22" length="30.12" width="3.75" shape="422.26,648.66 398.87,667.58"/>
    <lane id=":0_1_1" index="1" disallow="pedestrian tram rail_urban rail rail_electric rail_fast ship" speed="22.22" length="30.12" width="3.75" shape="419.92,645.74 396.50,664.68"/>
    <lane id=":0_1_2" index="2" disallow="pedestrian tram rail_urban rail rail_electric rail_fast ship" speed="22.22" length="30.12" width="3.75" shape="417.57,642.81 394.13,661.77"/>
  </edge>
  <edge id=":1_0" function="internal">
    <lane id=":1_0_0" index="0" disallow="pedestrian tram rail_urban rail rail_electric rail_fast ship" speed="20.83" length="72.39" width="3.75" shape="94.55,902.86 106.73,891.10 122.93,874.76 137.65,859.59 145.41,851.37"/>
  </edge>
  <edge id=":1_1" function="internal">
    <lane id=":1_1_0" index="0" disallow="pedestrian tram rail_urban rail rail_electric rail_fast ship" speed="22.22" length="72.53" width="3.75" shape="94.55,902.86 148.45,854.31"/>
    <lane id=":1_1_1" index="1" disallow="pedestrian tram rail_urban rail rail_electric rail_fast ship" speed="22.22" length="72.53" width="3.75" shape="97.06,905.64 150.95,857.10"/>
    <lane id=":1_1_2" index="2" disallow="pedestrian tram rail_urban rail rail_electric rail_fast ship" speed="22.22" length="72.53" width="3.75" shape="99.57,908.42 153.46,859.89"/>
  </edge>
  <edge id=":14.13_0" function="internal">
    <lane id=":14.13_0_0" index="0" disallow="pedestrian tram rail_urban rail rail_electric rail_fast ship" speed="22.22" length="0.30" width="3.75" shape="382.05,576.06,20.00 381.86,575.83,20.00"/>
    <lane id=":14.13_0_1" index="1" disallow="pedestrian tram rail_urban rail rail_electric rail_fast ship" speed="22.22" length="0.30" width="3.75" shape="384.97,573.71,20.00 384.78,573.47,20.00"/>
    <lane id=":14.13_0_2" index="2" disallow="pedestrian tram rail_urban rail rail_electric rail_fast ship" speed="22.22" length="0.30" width="3.75" shape="387.89,571.35,20.00 387.70,571.12,20.00"/>
  </edge>
  <edge id=":17.16_0" function="internal">
    <lane id=":17.16_0_0" index="0" disallow="pedestrian tram rail_urban rail rail_electric rail_fast ship" speed="8.33" length="0.28" width="3.75" shape="449.07,738.64,10.67 449.31,738.78,10.72"/>
  </edge>
  <edge id=":19.18_0" function="internal">
    <lane id=":19.18_0_0" index="0" disallow="pedestrian tram rail_urban rail rail_electric rail_fast ship" speed="11.11" length="0.27" width="3.75" shape="589.50,639.71,10.01 589.53,639.44,9.97"/>
  </edge>
  <edge id=":2_0" function="internal">
    <lane id=":2_0_0" index="0" disallow="pedestrian tram rail_urban rail rail_electric rail_fast ship" speed="16.67" length="26.81" width="3.75" shape="506.81,686.60,20.00 513.16,693.08,20.00 518.92,697.76,20.00 523.93,700.84,20.00 528.04,702.51,20.00"/>
  </edge>
  <edge id=":2_1" function="internal">
    <lane id=":2_1_0" index="0" disallow="pedestrian tram rail_urban rail rail_electric rail_fast ship" speed="22.22" length="27.35" width="3.75" shape="506.81,686.60,20.00 524.94,707.07,20.00"/>
    <lane id=":2_1_1" index="1" disallow="pedestrian tram rail_urban rail rail_electric rail_fast ship" speed="22.22" length="27.35" width="3.75" shape="504.00,689.08,20.00 522.14,709.56,20.00"/>
    <lane id=":2_1_2" index="2" disallow="pedestrian tram rail_urban rail rail_electric rail_fast ship" speed="22.22" length="27.35" width="3.75" shape="501.19,691.56,20.00 519.33,712.05,20.00"/>
  </edge>
  <edge id=":2.1_0" function="internal">
    <lane id=":2.1_0_0" index="0" disallow="pedestrian tram rail_urban rail rail_electric rail_fast ship" speed="22.22" length="0.30" width="3.75" shape="495.82,592.18 495.58,592.36"/>
    <lane id=":2.1_0_1" index="1" disallow="pedestrian tram rail_urban rail rail_electric rail_fast ship" speed="22.22" length="0.30" width="3.75" shape="493.61,589.15 493.37,589.33"/>
    <lane id=":2.1_0_2" index="2" disallow="pedestrian tram rail_urban rail rail_electric rail_fast ship" speed="22.22" length="0.30" width="3.75" shape="491.41,586.12 491.16,586.30"/>
  </edge>
  <edge id=":21.20_0" function="internal">
    <lane id=":21.20_0_0" index="0" disallow="pedestrian tram rail_urban rail rail_electric rail_fast ship" speed="13.89" length="0.30" width="3.75" shape="591.90,328.52,8.28 592.20,328.57,8.27"/>
  </edge>
  <edge id=":23.22_0" function="internal">
    <lane id=":23.22_0_0" index="0" disallow="pedestrian tram rail_urban rail rail_electric rail_fast ship" speed="19.44" length="0.30" width="3.75" shape="255.83,610.58,8.77 255.84,610.28,8.78"/>
  </edge>
  <edge id=":3_0" function="internal">
    <lane id=":3_0_0" index="0" disallow="pedestrian tram rail_urban rail rail_electric rail_fast ship" speed="18.06" length="77.37" width="3.75" shape="88.06,111.92,20.00 98.23,126.42,20.00 112.84,146.37,20.00 126.51,164.67,20.00 133.89,174.25,20.00"/>
  </edge>
  <edge id=":3_1" function="internal">
    <lane id=":3_1_0" index="0" disallow="pedestrian tram rail_urban rail rail_electric rail_fast ship" speed="22.22" length="77.50" width="3.75" shape="88.06,111.92,20.00 130.50,176.76,20.00"/>
    <lane id=":3_1_1" index="1" disallow="pedestrian tram rail_urban rail rail_electric rail_fast ship" speed="22.22" length="77.50" width="3.75" shape="84.92,113.97,20.00 127.36,178.82,20.00"/>
    <lane id=":3_1_2" index="2" disallow="pedestrian tram rail_urban rail rail_electric rail_fast ship" speed="22.22" length="77.50" width="3.75" shape="81.78,116.02,20.00 124.23,180.87,20.00"/>
  </edge>
  <edge id=":4_0" function="internal">
    <lane id=":4_0_0" index="0" disallow="pedestrian tram rail_urban rail rail_electric rail_fast ship" speed="15.28" length="31.24" width="3.75" shape="501.77,724.61,20.00 500.44,719.91,20.00 497.50,713.56,20.00 492.83,706.02,20.00 486.34,697.78,20.00"/>
  </edge>
  <edge id=":4_1" function="internal">
    <lane id=":4_1_0" index="0" disallow="pedestrian tram rail_urban rail rail_electric rail_fast ship" speed="22.22" length="29.92" width="3.75" shape="506.18,720.19,20.00 486.34,697.78,20.00"/>
    <lane id=":4_1_1" index="1" disallow="pedestrian tram rail_urban rail rail_electric rail_fast ship" speed="22.22" length="29.92" width="3.75" shape="508.98,717.70,20.00 489.15,695.30,20.00"/>
    <lane id=":4_1_2" index="2" disallow="pedestrian tram rail_urban rail rail_electric rail_fast ship" speed="22.22" length="29.92" width="3.75" shape="511.78,715.21,20.00 491.96,692.82,20.00"/>
  </edge>
  <edge id=":5_0" function="internal">
    <lane id=":5_0_0" index="0" disallow="pedestrian tram rail_urban rail rail_electric rail_fast ship" speed="16.67" length="29.00" width="3.75" shape="547.36,563.94 542.74,564.38 536.57,566.07 529.13,569.33 520.73,574.45"/>
  </edge>
  <edge id=":5_1" function="internal">
    <lane id=":5_1_0" index="0" disallow="pedestrian tram rail_urban rail rail_electric rail_fast ship" speed="22.22" length="27.57" width="3.75" shape="543.39,558.82 520.73,574.45"/>
    <lane id=":5_1_1" index="1" disallow="pedestrian tram rail_urban rail rail_electric rail_fast ship" speed="22.22" length="27.57" width="3.75" shape="541.28,555.72 518.58,571.37"/>
    <lane id=":5_1_2" index="2" disallow="pedestrian tram rail_urban rail rail_electric rail_fast ship" speed="22.22" length="27.57" width="3.75" shape="539.17,552.62 516.43,568.30"/>
  </edge>
  <edge id=":6_0" function="internal">
    <lane id=":6_0_0" index="0" disallow="pedestrian tram rail_urban rail rail_electric rail_fast ship" speed="18.06" length="43.29" width="3.75" shape="949.49,273.96,0.12 955.80,271.49,0.10 966.06,267.15,0.07 977.86,261.68,0.03 988.77,255.85"/>
  </edge>
  <edge id=":6_1" function="internal">
    <lane id=":6_1_0" index="0" disallow="pedestrian tram rail_urban rail rail_electric rail_fast ship" speed="22.22" length="42.75" width="3.75" shape="952.06,277.75 988.77,255.85"/>
    <lane id=":6_1_1" index="1" disallow="pedestrian tram rail_urban rail rail_electric rail_fast ship" speed="22.22" length="42.75" width="3.75" shape="953.98,280.97 990.69,259.07"/>
    <lane id=":6_1_2" index="2" disallow="pedestrian tram rail_urban rail rail_electric rail_fast ship" speed="22.22" length="42.75" width="3.75" shape="955.90,284.19 992.61,262.29"/>
  </edge>
  <edge id=":6.5_0" function="internal">
    <lane id=":6.5_0_0" index="0" disallow="pedestrian tram rail_urban rail rail_electric rail_fast ship" speed="22.22" length="0.30" width="3.75" shape="482.19,573.96 482.44,573.78"/>
    <lane id=":6.5_0_1" index="1" disallow="pedestrian tram rail_urban rail rail_electric rail_fast ship" speed="22.22" length="0.30" width="3.75" shape="484.40,576.99 484.64,576.82"/>
    <lane id=":6.5_0_2" index="2" disallow="pedestrian tram rail_urban rail rail_electric rail_fast ship" speed="22.22" length="0.30" width="3.75" shape="486.61,580.02 486.85,579.85"/>
  </edge>
  <edge id=":7_0" function="internal">
    <lane id=":7_0_0" index="0" disallow="pedestrian tram rail_urban rail rail_electric rail_fast ship" speed="20.83" length="95.02" width="3.75" shape="169.04,283.73,20.00 120.08,202.29,20.00"/>
  </edge>
  <edge id=":7_1" function="internal">
    <lane id=":7_1_0" index="0" disallow="pedestrian tram rail_urban rail rail_electric rail_fast ship" speed="22.22" length="94.76" width="3.75" shape="172.41,281.33,20.00 120.08,202.29,20.00"/>
    <lane id=":7_1_1" index="1" disallow="pedestrian tram rail_urban rail rail_electric rail_fast ship" speed="22.22" length="94.76" width="3.75" shape="175.53,279.25,20.00 123.21,200.23,20.00"/>
    <lane id=":7_1_2" index="2" disallow="pedestrian tram rail_urban rail rail_electric rail_fast ship" speed="22.22" length="94.76" width="3.75" shape="178.64,277.17,20.00 126.35,198.17,20.00"/>
  </edge>
  <edge id=":9.10_0" function="internal">
    <lane id=":9.10_0_0" index="0" disallow="pedestrian tram rail_urban rail rail_electric rail_fast ship" speed="22.22" length="0.30" width="3.75" shape="399.56,561.54,20.00 399.75,561.77,20.00"/>
    <lane id=":9.10_0_1" index="1" disallow="pedestrian tram rail_urban rail rail_electric rail_fast ship" speed="22.22" length="0.30" width="3.75" shape="396.64,563.89,20.00 396.83,564.13,20.00"/>
    <lane id=":9.10_0_2" index="2" disallow="pedestrian tram rail_urban rail rail_electric rail_fast ship" speed="22.22" length="0.30" width="3.75" shape="393.73,566.25,20.00 393.92,566.48,20.00"/>
  </edge>
  <edge id="-0" from="0.begin" to="5" priority="1" type="driving" shape="1102.73,202.87 1102.03,203.31 1101.31,203.76 1100.58,204.21 1099.83,204.67 1099.08,205.14 1098.31,205.62 1097.53,206.10 1096.74,206.59 1095.93,207.08 1095.11,207.59 1094.28,208.10 1093.44,208.61 1092.59,209.14 1091.72,209.67 1090.84,210.20 1089.96,210.75 1089.05,211.30 1088.14,211.85 1087.22,212.42 1086.28,212.98 1085.33,213.56 1084.37,214.14 1083.40,214.73 1082.42,215.33 1081.43,215.93 1080.42,216.54 1079.41,217.15 1078.38,217.78 1077.35,218.40 1076.30,219.04 1075.24,219.68 1074.17,220.32 1073.09,220.98 1071.99,221.63 1070.89,222.30 1069.78,222.97 1068.66,223.65 1067.52,224.33 1066.38,225.02 1065.22,225.71 1064.06,226.41 1062.88,227.12 1061.70,227.83 1060.50,228.55 1059.29,229.27 1058.08,230.00 1056.85,230.74 1055.62,231.48 1054.37,232.23 1053.12,232.98 1051.85,233.74 1050.58,234.50 1049.29,235.27 1048.00,236.05 1046.69,236.83 1045.38,237.61 1044.06,238.40 1042.73,239.20 1041.39,240.00 1040.04,240.81 1038.68,241.62 1037.31,242.44 1035.94,243.26 1034.55,244.09 1033.15,244.92 1031.75,245.76 1030.34,246.60 1028.92,247.45 1027.49,248.31 1026.05,249.16 1024.60,250.03 1023.15,250.90 1021.69,251.77 1020.21,252.65 1018.73,253.53 1017.25,254.42 1015.75,255.31 1014.25,256.21 1012.73,257.11 1011.21,258.02 1009.69,258.93 1008.15,259.85 1006.61,260.77 1005.05,261.69 1003.49,262.62 1001.93,263.56 1000.35,264.50 998.77,265.44 997.18,266.39 995.59,267.34 993.98,268.30 992.37,269.26 990.75,270.22 989.13,271.19 987.50,272.17 985.86,273.14 984.21,274.13 982.56,275.11 980.90,276.10 979.23,277.10 977.56,278.09 975.88,279.10 974.19,280.10 972.50,281.11 970.80,282.13 969.09,283.14 967.38,284.17 965.66,285.19 963.93,286.22 962.20,287.25 960.47,288.29 958.72,289.33 956.97,290.38 955.22,291.42 953.46,292.48 951.69,293.53 949.92,294.59 948.14,295.65 946.36,296.72 944.57,297.79 942.77,298.86 940.97,299.93 939.17,301.01 937.36,302.10 935.54,303.18 933.72,304.27 931.90,305.36 930.06,306.46 928.23,307.56 926.39,308.66 924.54,309.76 922.69,310.87 920.83,311.98 918.97,313.10 917.11,314.21 915.24,315.33 913.36,316.46 911.49,317.58 909.60,318.71 907.72,319.84 905.82,320.98 903.93,322.11 902.03,323.25 900.12,324.39 898.22,325.54 896.30,326.69 894.39,327.84 892.47,328.99 890.54,330.14 888.62,331.30 886.69,332.46 884.75,333.62 882.81,334.79 880.87,335.96 878.93,337.13 876.98,338.30 875.03,339.47 873.07,340.65 871.11,341.83 869.15,343.01 867.19,344.19 865.22,345.38 863.25,346.56 861.28,347.75 859.30,348.95 857.32,350.14 855.34,351.33 853.36,352.53 851.37,353.73 849.38,354.93 847.39,356.13 845.39,357.34 843.40,358.55 841.40,359.75 839.40,360.96 837.39,362.18 835.39,363.39 833.38,364.60 831.37,365.82 829.36,367.04 827.35,368.26 825.33,369.48 823.32,370.70 821.30,371.93 819.28,373.15 817.26,374.38 815.23,375.61 813.21,376.84 811.18,378.07 809.15,379.30 807.13,380.53 805.10,381.77 803.07,383.00 801.03,384.24 799.00,385.48 796.97,386.72 794.93,387.95 792.90,389.20 790.86,390.44 788.82,391.68 786.79,392.92 784.75,394.17 782.71,395.41 780.67,396.66 778.63,397.91 776.59,399.15 774.55,400.40 772.51,401.65 770.47,402.90 768.43,404.15 766.39,405.40 764.34,406.65 762.30,407.91 760.26,409.16 758.22,410.41 756.18,411.67 754.14,412.92 752.10,414.17 750.06,415.43 748.02,416.68 745.99,417.94 743.95,419.19 741.91,420.45 739.88,421.70 737.84,422.96 735.81,424.22 733.77,425.47 731.74,426.73 729.71,427.98 727.68,429.24 725.65,430.50 723.62,431.75 721.59,433.01 719.57,434.26 717.54,435.52 715.52,436.78 713.50,438.03 711.48,439.29 709.46,440.54 707.45,441.79 705.43,443.05 703.42,444.30 701.41,445.56 699.40,446.81 697.39,448.06 695.39,449.31 693.39,450.56 691.39,451.81 689.39,453.06 687.39,454.31 685.40,455.56 683.41,456.81 681.42,458.06 679.43,459.30 677.45,460.55 675.47,461.80 673.49,463.04 671.51,464.28 669.54,465.52 667.57,466.77 665.61,468.01 663.64,469.25 661.68,470.48 659.72,471.72 657.77,472.96 655.82,474.19 653.87,475.43 651.93,476.66 649.99,477.89 648.05,479.12 646.12,480.35 644.19,481.58 642.26,482.80 640.34,484.03 638.42,485.25 636.50,486.47 634.59,487.69 632.68,488.91 630.78,490.13 628.88,491.35 626.99,492.56 625.10,493.77 623.21,494.98 621.33,496.19 619.45,497.40 617.58,498.61 615.71,499.81 613.85,501.01 611.99,502.21 610.13,503.41 608.28,504.61 606.44,505.80 604.60,506.99 602.77,508.19 600.94,509.37 599.11,510.56 597.29,511.74 595.48,512.93 593.67,514.11 591.86,515.28 590.07,516.46 588.27,517.63 586.48,518.80 584.70,519.97 582.93,521.14 581.16,522.30 579.39,523.46 577.63,524.62 575.88,525.78 574.13,526.93 572.39,528.09 570.65,529.23 568.92,530.38 567.20,531.52 565.48,532.67 563.77,533.80 562.07,534.94 560.37,536.07 558.68,537.20 557.00,538.33 555.32,539.45 553.65,540.57 551.98,541.69 550.32,542.81 548.67,543.92 547.03,545.03 545.39,546.14 543.76,547.24 542.14,548.34 540.52,549.44 538.91,550.53 537.31,551.62 535.71,552.71 534.13,553.79 532.55,554.88 530.98,555.95 529.41,557.03 527.85,558.10 526.30,559.17 524.76,560.23 523.23,561.29 521.70,562.35 520.18,563.40 518.67,564.45">
    <lane id="-0_0" index="0" disallow="pedestrian tram rail_urban rail rail_electric rail_fast ship" speed="22.22" length="663.20" width="3.75" shape="1107.69,210.83 1106.98,211.27 1106.26,211.72 1105.52,212.18 1104.77,212.65 1104.01,213.12 1103.24,213.59 1102.45,214.08 1101.65,214.57 1100.84,215.07 1100.02,215.57 1099.19,216.09 1098.34,216.60 1097.48,217.13 1096.61,217.66 1095.73,218.20 1094.84,218.75 1093.94,219.30 1093.02,219.86 1092.09,220.42 1091.15,220.99 1090.20,221.57 1089.24,222.16 1088.27,222.75 1087.28,223.34 1086.29,223.95 1085.28,224.56 1084.26,225.17 1083.24,225.80 1082.20,226.43 1081.15,227.06 1080.08,227.70 1079.01,228.35 1077.93,229.00 1076.84,229.66 1075.73,230.33 1074.62,231.00 1073.49,231.68 1072.36,232.36 1071.21,233.05 1070.05,233.75 1068.89,234.45 1067.71,235.16 1066.52,235.87 1065.33,236.59 1064.12,237.31 1062.90,238.04 1061.67,238.78 1060.44,239.52 1059.19,240.27 1057.94,241.02 1056.67,241.78 1055.39,242.54 1054.11,243.31 1052.81,244.09 1051.51,244.87 1050.20,245.66 1048.87,246.45 1047.54,247.24 1046.20,248.05 1044.85,248.85 1043.49,249.67 1042.12,250.49 1040.74,251.31 1039.36,252.14 1037.96,252.97 1036.56,253.81 1035.15,254.65 1033.73,255.50 1032.30,256.36 1030.86,257.21 1029.41,258.08 1027.95,258.95 1026.49,259.82 1025.02,260.70 1023.54,261.58 1022.05,262.47 1020.55,263.36 1019.05,264.26 1017.54,265.16 1016.02,266.07 1014.49,266.98 1012.95,267.90 1011.41,268.82 1009.86,269.74 1008.30,270.67 1006.73,271.61 1005.16,272.55 1003.57,273.49 1001.98,274.44 1000.39,275.39 998.78,276.35 997.17,277.31 995.56,278.27 993.93,279.24 992.30,280.22 990.66,281.19 989.01,282.18 987.36,283.16 985.70,284.15 984.03,285.15 982.36,286.15 980.68,287.15 978.99,288.15 977.30,289.16 975.60,290.18 973.89,291.20 972.18,292.22 970.46,293.24 968.74,294.27 967.01,295.30 965.27,296.34 963.53,297.38 961.78,298.43 960.03,299.47 958.27,300.53 956.50,301.58 954.73,302.64 952.95,303.70 951.17,304.77 949.38,305.83 947.58,306.91 945.78,307.98 943.98,309.06 942.17,310.14 940.35,311.23 938.53,312.32 936.71,313.41 934.88,314.50 933.04,315.60 931.20,316.70 929.36,317.81 927.50,318.92 925.65,320.03 923.79,321.14 921.93,322.26 920.06,323.38 918.18,324.50 916.31,325.62 914.42,326.75 912.54,327.88 910.65,329.02 908.75,330.15 906.85,331.29 904.95,332.43 903.04,333.58 901.13,334.72 899.21,335.87 897.29,337.03 895.37,338.18 893.45,339.34 891.52,340.50 889.58,341.66 887.64,342.82 885.70,343.99 883.76,345.16 881.81,346.33 879.86,347.51 877.91,348.68 875.95,349.86 873.99,351.04 872.02,352.22 870.06,353.41 868.09,354.59 866.12,355.78 864.14,356.97 862.16,358.17 860.18,359.36 858.20,360.56 856.21,361.76 854.23,362.96 852.23,364.16 850.24,365.36 848.25,366.57 846.25,367.78 844.25,368.99 842.25,370.20 840.24,371.41 838.24,372.62 836.23,373.84 834.22,375.06 832.21,376.28 830.19,377.50 828.18,378.72 826.16,379.94 824.14,381.17 822.12,382.39 820.10,383.62 818.07,384.85 816.05,386.08 814.02,387.31 812.00,388.54 809.97,389.78 807.94,391.01 805.91,392.25 803.88,393.48 801.84,394.72 799.81,395.96 797.78,397.20 795.74,398.44 793.71,399.68 791.67,400.93 789.63,402.17 787.60,403.41 785.56,404.66 783.52,405.91 781.48,407.15 779.44,408.40 777.40,409.65 775.36,410.90 773.32,412.15 771.29,413.40 769.25,414.65 767.21,415.90 765.17,417.15 763.13,418.40 761.09,419.65 759.05,420.91 757.01,422.16 754.98,423.41 752.94,424.67 750.90,425.92 748.87,427.17 746.83,428.43 744.80,429.68 742.76,430.94 740.73,432.19 738.70,433.45 736.67,434.70 734.64,435.96 732.61,437.21 730.58,438.47 728.56,439.72 726.53,440.98 724.51,442.23 722.49,443.49 720.47,444.74 718.45,445.99 716.43,447.25 714.41,448.50 712.40,449.75 710.39,451.01 708.38,452.26 706.37,453.51 704.36,454.76 702.36,456.01 700.35,457.26 698.35,458.51 696.36,459.76 694.36,461.01 692.37,462.26 690.38,463.51 688.39,464.75 686.40,466.00 684.42,467.24 682.44,468.49 680.46,469.73 678.48,470.97 676.51,472.22 674.54,473.46 672.57,474.70 670.61,475.94 668.65,477.17 666.69,478.41 664.73,479.65 662.78,480.88 660.83,482.11 658.89,483.35 656.95,484.58 655.01,485.81 653.08,487.03 651.15,488.26 649.22,489.49 647.29,490.71 645.38,491.93 643.46,493.16 641.55,494.38 639.64,495.59 637.74,496.81 635.84,498.03 633.94,499.24 632.05,500.45 630.16,501.66 628.28,502.87 626.40,504.08 624.53,505.28 622.66,506.49 620.79,507.69 618.93,508.89 617.08,510.09 615.22,511.28 613.38,512.48 611.54,513.67 609.70,514.86 607.87,516.05 606.04,517.23 604.22,518.42 602.41,519.60 600.60,520.78 598.79,521.96 596.99,523.13 595.20,524.31 593.41,525.48 591.62,526.64 589.85,527.81 588.07,528.97 586.31,530.14 584.55,531.29 582.79,532.45 581.04,533.60 579.30,534.76 577.56,535.90 575.83,537.05 574.11,538.19 572.39,539.33 570.68,540.47 568.97,541.61 567.27,542.74 565.58,543.87 563.89,545.00 562.21,546.12 560.54,547.24 558.87,548.36 557.21,549.47 555.56,550.59 553.91,551.69 552.27,552.80 550.64,553.90 549.02,555.00 547.40,556.10 545.79,557.19 544.18,558.28 543.39,558.82" type="driving"/>
    <lane id="-0_1" index="1" disallow="pedestrian tram rail_urban rail rail_electric rail_fast ship" speed="22.22" length="663.20" width="3.75" shape="1105.71,207.65 1105.00,208.09 1104.28,208.54 1103.54,208.99 1102.80,209.46 1102.04,209.93 1101.26,210.40 1100.48,210.89 1099.69,211.38 1098.88,211.87 1098.06,212.38 1097.23,212.89 1096.38,213.41 1095.53,213.93 1094.66,214.46 1093.78,215.00 1092.89,215.55 1091.98,216.10 1091.07,216.65 1090.14,217.22 1089.20,217.79 1088.26,218.37 1087.29,218.95 1086.32,219.54 1085.34,220.14 1084.35,220.74 1083.34,221.35 1082.32,221.97 1081.29,222.59 1080.26,223.22 1079.21,223.85 1078.15,224.49 1077.07,225.14 1075.99,225.79 1074.90,226.45 1073.80,227.12 1072.68,227.79 1071.56,228.47 1070.42,229.15 1069.28,229.84 1068.12,230.53 1066.95,231.23 1065.78,231.94 1064.59,232.65 1063.40,233.37 1062.19,234.10 1060.97,234.83 1059.75,235.56 1058.51,236.31 1057.26,237.05 1056.01,237.81 1054.74,238.56 1053.47,239.33 1052.18,240.10 1050.89,240.87 1049.58,241.65 1048.27,242.44 1046.95,243.23 1045.62,244.03 1044.28,244.83 1042.93,245.64 1041.57,246.45 1040.20,247.27 1038.82,248.09 1037.43,248.92 1036.04,249.75 1034.64,250.59 1033.22,251.43 1031.80,252.28 1030.37,253.14 1028.93,253.99 1027.49,254.86 1026.03,255.73 1024.57,256.60 1023.10,257.48 1021.62,258.36 1020.13,259.25 1018.63,260.14 1017.13,261.04 1015.62,261.94 1014.10,262.85 1012.57,263.76 1011.03,264.68 1009.49,265.60 1007.94,266.52 1006.38,267.45 1004.81,268.39 1003.23,269.33 1001.65,270.27 1000.06,271.22 998.47,272.17 996.86,273.13 995.25,274.09 993.63,275.05 992.01,276.02 990.38,277.00 988.74,277.97 987.09,278.96 985.44,279.94 983.78,280.93 982.11,281.93 980.44,282.92 978.76,283.93 977.07,284.93 975.38,285.94 973.68,286.96 971.97,287.98 970.26,289.00 968.54,290.02 966.82,291.05 965.09,292.08 963.35,293.12 961.61,294.16 959.86,295.21 958.10,296.25 956.34,297.31 954.58,298.36 952.80,299.42 951.03,300.48 949.24,301.55 947.45,302.62 945.66,303.69 943.86,304.76 942.06,305.84 940.25,306.92 938.43,308.01 936.61,309.10 934.78,310.19 932.95,311.29 931.12,312.38 929.28,313.49 927.43,314.59 925.58,315.70 923.72,316.81 921.86,317.92 920.00,319.04 918.13,320.16 916.26,321.28 914.38,322.41 912.49,323.53 910.61,324.67 908.72,325.80 906.82,326.94 904.92,328.08 903.02,329.22 901.11,330.36 899.20,331.51 897.28,332.66 895.36,333.81 893.44,334.97 891.51,336.12 889.58,337.28 887.65,338.45 885.71,339.61 883.77,340.78 881.83,341.95 879.88,343.12 877.93,344.29 875.97,345.47 874.01,346.65 872.05,347.83 870.09,349.01 868.12,350.20 866.15,351.38 864.18,352.57 862.20,353.76 860.23,354.96 858.25,356.15 856.26,357.35 854.28,358.55 852.29,359.75 850.30,360.95 848.30,362.15 846.31,363.36 844.31,364.57 842.31,365.78 840.31,366.99 838.30,368.20 836.29,369.42 834.29,370.63 832.27,371.85 830.26,373.07 828.25,374.29 826.23,375.51 824.21,376.74 822.19,377.96 820.17,379.19 818.15,380.41 816.13,381.64 814.10,382.87 812.08,384.11 810.05,385.34 808.02,386.57 805.99,387.81 803.96,389.04 801.93,390.28 799.89,391.52 797.86,392.76 795.83,394.00 793.79,395.24 791.75,396.48 789.72,397.73 787.68,398.97 785.64,400.21 783.60,401.46 781.56,402.71 779.52,403.95 777.49,405.20 775.45,406.45 773.41,407.70 771.37,408.95 769.33,410.20 767.29,411.45 765.25,412.70 763.21,413.95 761.17,415.21 759.13,416.46 757.09,417.71 755.05,418.96 753.01,420.22 750.97,421.47 748.94,422.73 746.90,423.98 744.86,425.24 742.83,426.49 740.79,427.75 738.76,429.00 736.73,430.26 734.70,431.51 732.67,432.77 730.64,434.02 728.61,435.28 726.58,436.53 724.56,437.79 722.53,439.04 720.51,440.30 718.49,441.55 716.47,442.81 714.45,444.06 712.43,445.32 710.42,446.57 708.41,447.82 706.39,449.08 704.38,450.33 702.38,451.58 700.37,452.83 698.37,454.08 696.37,455.33 694.37,456.58 692.37,457.83 690.38,459.08 688.38,460.33 686.39,461.58 684.41,462.82 682.42,464.07 680.44,465.31 678.46,466.56 676.48,467.80 674.51,469.04 672.54,470.28 670.57,471.52 668.61,472.76 666.64,474.00 664.69,475.24 662.73,476.48 660.78,477.71 658.83,478.94 656.88,480.18 654.94,481.41 653.00,482.64 651.07,483.87 649.13,485.10 647.20,486.32 645.28,487.55 643.36,488.77 641.44,489.99 639.53,491.21 637.62,492.43 635.72,493.65 633.81,494.87 631.92,496.08 630.02,497.30 628.14,498.51 626.25,499.72 624.37,500.92 622.50,502.13 620.63,503.34 618.76,504.54 616.90,505.74 615.04,506.94 613.19,508.13 611.34,509.33 609.50,510.52 607.66,511.71 605.83,512.90 604.00,514.09 602.18,515.28 600.36,516.46 598.55,517.64 596.74,518.82 594.94,519.99 593.14,521.17 591.35,522.34 589.57,523.51 587.79,524.68 586.01,525.84 584.25,527.00 582.48,528.16 580.73,529.32 578.98,530.47 577.23,531.63 575.49,532.78 573.76,533.92 572.03,535.07 570.31,536.21 568.60,537.35 566.89,538.49 565.19,539.62 563.50,540.75 561.81,541.88 560.13,543.00 558.45,544.13 556.78,545.24 555.12,546.36 553.46,547.47 551.82,548.59 550.18,549.69 548.54,550.80 546.91,551.90 545.29,553.00 543.68,554.09 542.08,555.18 541.28,555.72" type="driving"/>