<?xml version='1.0' encoding='UTF-8'?>
<!-- generated on 2022-09-25 13:28:43 by Eclipse SUMO netconvert Version 1.13.0
<configuration xmlns:xsi="http://www.w3.org/2001/XMLSchema-instance" xsi:noNamespaceSchemaLocation="http://sumo.dlr.de/xsd/netconvertConfiguration.xsd">

    <input>
        <opendrive-files value="map_new_new\21\24\24.xodr"/>
    </input>

    <output>
        <output-file value="C:\Users\LinGe\AppData\Local\Temp\tmp6ns2i9h_\24.net.xml"/>
    </output>

    <processing>
        <geometry.max-grade.fix value="false"/>
    </processing>

    <tls_building>
        <tls.left-green.time value="0"/>
    </tls_building>

    <junctions>
        <rectangular-lane-cut value="true"/>
    </junctions>

    <report>
        <aggregate-warnings value="5"/>
    </report>

</configuration>
-->
<net xmlns:xsi="http://www.w3.org/2001/XMLSchema-instance" version="1.9" junctionCornerDetail="5" rectangularLaneCut="true" limitTurnSpeed="5.50" xsi:noNamespaceSchemaLocation="http://sumo.dlr.de/xsd/net_file.xsd">
  <location netOffset="109.63,101.26" convBoundary="0.00,0.00,1210.81,1302.51" origBoundary="-109.63,-101.26,1101.18,1201.26" projParameter="!"/>
  <type id="bidirectional" priority="1" speed="1.39" disallow="pedestrian tram rail_urban rail rail_electric rail_fast ship" width="3.65"/>
  <type id="border" priority="0" speed="1.39" disallow="all" discard="1" width="0.10"/>
  <type id="driving" priority="1" speed="13.89" disallow="pedestrian tram rail_urban rail rail_electric rail_fast ship" width="3.65"/>
  <type id="entry" priority="1" speed="22.22" disallow="pedestrian tram rail_urban rail rail_electric rail_fast ship" width="3.65"/>
  <type id="exit" priority="1" speed="22.22" disallow="pedestrian tram rail_urban rail rail_electric rail_fast ship" width="3.65"/>
  <type id="median" priority="0" speed="1.39" disallow="all" discard="1" width="0.10"/>
  <type id="mwyEntry" priority="1" speed="22.22" allow="private emergency authority army vip passenger hov taxi bus coach delivery truck trailer motorcycle evehicle custom1 custom2" width="3.65"/>
  <type id="mwyExit" priority="1" speed="22.22" allow="private emergency authority army vip passenger hov taxi bus coach delivery truck trailer motorcycle evehicle custom1 custom2" width="3.65"/>
  <type id="none" priority="0" speed="1.39" disallow="all" discard="1" width="1.00"/>
  <type id="offRamp" priority="1" speed="22.22" allow="private emergency authority army vip passenger hov taxi bus coach delivery truck trailer motorcycle evehicle custom1 custom2" width="3.65"/>
  <type id="onRamp" priority="1" speed="22.22" allow="private emergency authority army vip passenger hov taxi bus coach delivery truck trailer motorcycle evehicle custom1 custom2" width="3.65"/>
  <type id="parking" priority="1" speed="1.39" disallow="pedestrian tram rail_urban rail rail_electric rail_fast ship" width="2.50"/>
  <type id="rail" priority="3" speed="33.33" allow="rail_urban rail rail_electric rail_fast" width="3.65"/>
  <type id="restricted" priority="0" speed="13.89" disallow="all" width="3.65"/>
  <type id="roadWorks" priority="0" speed="1.39" allow="authority" width="3.65"/>
  <type id="shoulder" priority="0" speed="1.39" disallow="all" discard="1" width="1.00"/>
  <type id="special1" priority="1" speed="22.22" allow="custom1" discard="1" width="3.65"/>
  <type id="special2" priority="1" speed="22.22" allow="custom2" discard="1" width="3.65"/>
  <type id="special3" priority="1" speed="22.22" allow="custom1 custom2" discard="1" width="3.65"/>
  <type id="stop" priority="1" speed="13.89" disallow="pedestrian tram rail_urban rail rail_electric rail_fast ship" width="3.65"/>
  <type id="tram" priority="2" speed="13.89" allow="tram" width="3.65"/>
  <edge id=":0_0" function="internal">
    <lane id=":0_0_0" index="0" disallow="pedestrian tram rail_urban rail rail_electric rail_fast ship" speed="15.28" length="36.50" width="3.75" shape="1100.91,276.80 1091.37,282.86,0.02 1082.82,289.23,0.04 1076.02,294.84,0.06 1071.73,298.63,0.07"/>
  </edge>
  <edge id=":0_1" function="internal">
    <lane id=":0_1_0" index="0" disallow="pedestrian tram rail_urban rail rail_electric rail_fast ship" speed="22.22" length="36.66" width="3.75" shape="1100.91,276.80 1069.05,294.91"/>
    <lane id=":0_1_1" index="1" disallow="pedestrian tram rail_urban rail rail_electric rail_fast ship" speed="22.22" length="36.66" width="3.75" shape="1099.06,273.54 1067.19,291.65"/>
    <lane id=":0_1_2" index="2" disallow="pedestrian tram rail_urban rail rail_electric rail_fast ship" speed="22.22" length="36.66" width="3.75" shape="1097.21,270.28 1065.34,288.39"/>
  </edge>
  <edge id=":1_0" function="internal">
    <lane id=":1_0_0" index="0" disallow="pedestrian tram rail_urban rail rail_electric rail_fast ship" speed="19.44" length="88.88" width="3.75" shape="526.19,644.45 511.64,657.44 490.63,676.96 471.14,695.37 461.18,705.04"/>
  </edge>
  <edge id=":1_1" function="internal">
    <lane id=":1_1_0" index="0" disallow="pedestrian tram rail_urban rail rail_electric rail_fast ship" speed="22.22" length="88.91" width="3.75" shape="526.19,644.45 458.44,701.91"/>
    <lane id=":1_1_1" index="1" disallow="pedestrian tram rail_urban rail rail_electric rail_fast ship" speed="22.22" length="88.91" width="3.75" shape="523.80,641.56 455.99,699.07"/>
    <lane id=":1_1_2" index="2" disallow="pedestrian tram rail_urban rail rail_electric rail_fast ship" speed="22.22" length="88.91" width="3.75" shape="521.40,638.68 453.54,696.23"/>
  </edge>
  <edge id=":10_0" function="internal">
    <lane id=":10_0_0" index="0" disallow="pedestrian tram rail_urban rail rail_electric rail_fast ship" speed="16.67" length="79.02" width="3.75" shape="913.95,352.96 925.06,347.58 946.01,337.10 968.53,325.59 984.37,317.12"/>
  </edge>
  <edge id=":10_1" function="internal">
    <lane id=":10_1_0" index="0" disallow="pedestrian tram rail_urban rail rail_electric rail_fast ship" speed="22.22" length="78.70" width="3.75" shape="916.23,356.55 984.37,317.12"/>
    <lane id=":10_1_1" index="1" disallow="pedestrian tram rail_urban rail rail_electric rail_fast ship" speed="22.22" length="78.70" width="3.75" shape="918.12,359.79 986.24,320.37"/>
    <lane id=":10_1_2" index="2" disallow="pedestrian tram rail_urban rail rail_electric rail_fast ship" speed="22.22" length="78.70" width="3.75" shape="920.01,363.03 988.11,323.62"/>
  </edge>
  <edge id=":11_0" function="internal">
    <lane id=":11_0_0" index="0" disallow="pedestrian tram rail_urban rail rail_electric rail_fast ship" speed="15.28" length="90.24" width="3.75" shape="903.61,1008.05,20.00 912.61,1018.89,20.00 930.24,1039.70,20.00 949.23,1061.81,20.00 962.33,1076.56,20.00"/>
  </edge>
  <edge id=":11_1" function="internal">
    <lane id=":11_1_0" index="0" disallow="pedestrian tram rail_urban rail rail_electric rail_fast ship" speed="22.22" length="89.99" width="3.75" shape="900.68,1011.03,20.00 962.33,1076.56,20.00"/>
    <lane id=":11_1_1" index="1" disallow="pedestrian tram rail_urban rail rail_electric rail_fast ship" speed="22.22" length="89.99" width="3.75" shape="897.94,1013.59,20.00 959.60,1079.13,20.00"/>
    <lane id=":11_1_2" index="2" disallow="pedestrian tram rail_urban rail rail_electric rail_fast ship" speed="22.22" length="89.99" width="3.75" shape="895.21,1016.16,20.00 956.88,1081.71,20.00"/>
  </edge>
  <edge id=":12_0" function="internal">
    <lane id=":12_0_0" index="0" disallow="pedestrian tram rail_urban rail rail_electric rail_fast ship" speed="19.44" length="46.57" width="3.75" shape="711.92,846.05,19.89 708.07,839.87,19.91 701.19,829.72,19.94 692.90,818.27,19.97 684.84,808.21,20.00"/>
  </edge>
  <edge id=":12_1" function="internal">
    <lane id=":12_1_0" index="0" disallow="pedestrian tram rail_urban rail rail_electric rail_fast ship" speed="22.22" length="45.97" width="3.75" shape="715.29,842.70,20.00 684.84,808.21,20.00"/>
    <lane id=":12_1_1" index="1" disallow="pedestrian tram rail_urban rail rail_electric rail_fast ship" speed="22.22" length="45.97" width="3.75" shape="718.09,840.20,20.00 687.66,805.74,20.00"/>
    <lane id=":12_1_2" index="2" disallow="pedestrian tram rail_urban rail rail_electric rail_fast ship" speed="22.22" length="45.97" width="3.75" shape="720.89,837.71,20.00 690.49,803.27,20.00"/>
  </edge>
  <edge id=":13_0" function="internal">
    <lane id=":13_0_0" index="0" disallow="pedestrian tram rail_urban rail rail_electric rail_fast ship" speed="19.44" length="89.82" width="3.75" shape="450.39,673.34,0.00 521.67,618.69"/>
  </edge>
  <edge id=":13_1" function="internal">
    <lane id=":13_1_0" index="0" disallow="pedestrian tram rail_urban rail rail_electric rail_fast ship" speed="22.22" length="89.52" width="3.75" shape="453.16,676.44 521.67,618.69"/>
    <lane id=":13_1_1" index="1" disallow="pedestrian tram rail_urban rail rail_electric rail_fast ship" speed="22.22" length="89.52" width="3.75" shape="455.60,679.28 524.05,621.58"/>
    <lane id=":13_1_2" index="2" disallow="pedestrian tram rail_urban rail rail_electric rail_fast ship" speed="22.22" length="89.52" width="3.75" shape="458.05,682.12 526.43,624.48"/>
  </edge>
  <edge id=":14_0" function="internal">
    <lane id=":14_0_0" index="0" disallow="pedestrian tram rail_urban rail rail_electric rail_fast ship" speed="15.97" length="33.70" width="3.75" shape="657.75,550.44 652.65,551.81 645.33,554.65 636.65,558.99 627.50,564.84"/>
  </edge>
  <edge id=":14_1" function="internal">
    <lane id=":14_1_0" index="0" disallow="pedestrian tram rail_urban rail rail_electric rail_fast ship" speed="22.22" length="32.72" width="3.75" shape="654.13,545.98 627.50,564.84"/>
    <lane id=":14_1_1" index="1" disallow="pedestrian tram rail_urban rail rail_electric rail_fast ship" speed="22.22" length="32.72" width="3.75" shape="652.00,542.89 625.29,561.80"/>
    <lane id=":14_1_2" index="2" disallow="pedestrian tram rail_urban rail rail_electric rail_fast ship" speed="22.22" length="32.72" width="3.75" shape="649.86,539.81 623.09,558.77"/>
  </edge>
  <edge id=":14.13_0" function="internal">
    <lane id=":14.13_0_0" index="0" disallow="pedestrian tram rail_urban rail rail_electric rail_fast ship" speed="22.22" length="0.30" width="3.75" shape="643.29,723.87,20.00 643.48,724.10,20.00"/>
    <lane id=":14.13_0_1" index="1" disallow="pedestrian tram rail_urban rail rail_electric rail_fast ship" speed="22.22" length="0.30" width="3.75" shape="640.37,726.22,20.00 640.56,726.45,20.00"/>
    <lane id=":14.13_0_2" index="2" disallow="pedestrian tram rail_urban rail rail_electric rail_fast ship" speed="22.22" length="0.30" width="3.75" shape="637.45,728.57,20.00 637.64,728.81,20.00"/>
  </edge>
  <edge id=":15_0" function="internal">
    <lane id=":15_0_0" index="0" disallow="pedestrian tram rail_urban rail rail_electric rail_fast ship" speed="8.33" length="17.19" width="3.75" shape="807.87,703.79,12.06 806.44,720.92,12.11"/>
  </edge>
  <edge id=":15_1" function="internal">
    <lane id=":15_1_0" index="0" disallow="pedestrian tram rail_urban rail rail_electric rail_fast ship" speed="9.03" length="16.73" width="3.75" shape="803.54,704.56,12.05 804.87,708.35,12.06 805.85,712.59,12.08 806.40,716.90,12.09 806.44,720.92,12.11"/>
  </edge>
  <edge id=":19.18_0" function="internal">
    <lane id=":19.18_0_0" index="0" disallow="pedestrian tram rail_urban rail rail_electric rail_fast ship" speed="22.22" length="0.30" width="3.75" shape="625.78,738.39,20.00 625.59,738.16,20.00"/>
    <lane id=":19.18_0_1" index="1" disallow="pedestrian tram rail_urban rail rail_electric rail_fast ship" speed="22.22" length="0.30" width="3.75" shape="628.70,736.04,20.00 628.51,735.80,20.00"/>
    <lane id=":19.18_0_2" index="2" disallow="pedestrian tram rail_urban rail rail_electric rail_fast ship" speed="22.22" length="0.30" width="3.75" shape="631.61,733.68,20.00 631.43,733.45,20.00"/>
  </edge>
  <edge id=":2_0" function="internal">
    <lane id=":2_0_0" index="0" disallow="pedestrian tram rail_urban rail rail_electric rail_fast ship" speed="16.67" length="82.19" width="3.75" shape="184.84,917.61 198.05,904.70 216.58,885.93 233.65,868.34 242.49,859.02"/>
  </edge>
  <edge id=":2_1" function="internal">
    <lane id=":2_1_0" index="0" disallow="pedestrian tram rail_urban rail rail_electric rail_fast ship" speed="22.22" length="82.33" width="3.75" shape="184.84,917.61 245.51,861.93"/>
    <lane id=":2_1_1" index="1" disallow="pedestrian tram rail_urban rail rail_electric rail_fast ship" speed="22.22" length="82.33" width="3.75" shape="187.38,920.37 248.04,864.70"/>
    <lane id=":2_1_2" index="2" disallow="pedestrian tram rail_urban rail rail_electric rail_fast ship" speed="22.22" length="82.33" width="3.75" shape="189.92,923.13 250.57,867.46"/>
  </edge>
  <edge id=":23.22_0" function="internal">
    <lane id=":23.22_0_0" index="0" disallow="pedestrian tram rail_urban rail rail_electric rail_fast ship" speed="11.11" length="0.30" width="3.75" shape="547.75,840.28,7.38 547.47,840.19,7.37"/>
  </edge>
  <edge id=":26.25_0" function="internal">
    <lane id=":26.25_0_0" index="0" disallow="pedestrian tram rail_urban rail rail_electric rail_fast ship" speed="11.11" length="0.30" width="3.75" shape="327.89,561.94,10.89 327.92,561.64,10.91"/>
  </edge>
  <edge id=":28.27_0" function="internal">
    <lane id=":28.27_0_0" index="0" disallow="pedestrian tram rail_urban rail rail_electric rail_fast ship" speed="11.11" length="0.30" width="3.75" shape="520.19,338.10,10.81 520.48,338.18,10.80"/>
  </edge>
  <edge id=":3_0" function="internal">
    <lane id=":3_0_0" index="0" disallow="pedestrian tram rail_urban rail rail_electric rail_fast ship" speed="16.67" length="46.73" width="3.75" shape="189.34,94.65,20.00 197.21,104.89,19.96 206.39,115.70,19.92 214.61,124.88,19.88 219.62,130.20,19.85"/>
  </edge>
  <edge id=":3_1" function="internal">
    <lane id=":3_1_0" index="0" disallow="pedestrian tram rail_urban rail rail_electric rail_fast ship" speed="22.22" length="46.87" width="3.75" shape="189.34,94.65,20.00 216.25,133.02,20.00"/>
    <lane id=":3_1_1" index="1" disallow="pedestrian tram rail_urban rail rail_electric rail_fast ship" speed="22.22" length="46.87" width="3.75" shape="186.27,96.80,20.00 213.18,135.18,20.00"/>
    <lane id=":3_1_2" index="2" disallow="pedestrian tram rail_urban rail rail_electric rail_fast ship" speed="22.22" length="46.87" width="3.75" shape="183.20,98.96,20.00 210.11,137.33,20.00"/>
  </edge>
  <edge id=":3.2_0" function="internal">
    <lane id=":3.2_0_0" index="0" disallow="pedestrian tram rail_urban rail rail_electric rail_fast ship" speed="22.22" length="0.30" width="3.75" shape="627.34,564.95 627.10,565.12"/>
    <lane id=":3.2_0_1" index="1" disallow="pedestrian tram rail_urban rail rail_electric rail_fast ship" speed="22.22" length="0.30" width="3.75" shape="625.14,561.92 624.89,562.09"/>
    <lane id=":3.2_0_2" index="2" disallow="pedestrian tram rail_urban rail rail_electric rail_fast ship" speed="22.22" length="0.30" width="3.75" shape="622.93,558.88 622.69,559.06"/>
  </edge>
  <edge id=":30.29_0" function="internal">
    <lane id=":30.29_0_0" index="0" disallow="pedestrian tram rail_urban rail rail_electric rail_fast ship" speed="8.33" length="0.29" width="3.75" shape="814.58,656.44,10.15 814.53,656.73,10.16"/>
  </edge>
  <edge id=":33.32_0" function="internal">
    <lane id=":33.32_0_0" index="0" disallow="pedestrian tram rail_urban rail rail_electric rail_fast ship" speed="16.67" length="0.30" width="3.75" shape="432.36,1006.07,9.09 432.58,1006.27,9.10"/>
  </edge>
  <edge id=":35.34_0" function="internal">
    <lane id=":35.34_0_0" index="0" disallow="pedestrian tram rail_urban rail rail_electric rail_fast ship" speed="16.67" length="0.30" width="3.75" shape="11.50,627.27,9.07 11.59,627.55,9.06"/>
  </edge>
  <edge id=":37.36_0" function="internal">
    <lane id=":37.36_0_0" index="0" disallow="pedestrian tram rail_urban rail rail_electric rail_fast ship" speed="9.72" length="0.28" width="3.75" shape="698.23,604.60,8.42 698.27,604.32,8.38"/>
  </edge>
  <edge id=":39.38_0" function="internal">
    <lane id=":39.38_0_0" index="0" disallow="pedestrian tram rail_urban rail rail_electric rail_fast ship" speed="9.72" length="0.28" width="3.75" shape="576.84,575.66,9.08 577.12,575.68,9.08"/>
  </edge>
  <edge id=":4_0" function="internal">
    <lane id=":4_0_0" index="0" disallow="pedestrian tram rail_urban rail rail_electric rail_fast ship" speed="15.97" length="26.88" width="3.75" shape="612.22,684.28,20.00 618.12,691.20,20.00 623.58,696.28,20.00 628.40,699.67,20.00 632.42,701.54,20.00"/>
  </edge>
  <edge id=":4_1" function="internal">
    <lane id=":4_1_0" index="0" disallow="pedestrian tram rail_urban rail rail_electric rail_fast ship" speed="22.22" length="27.44" width="3.75" shape="612.22,684.28,20.00 629.02,705.92,20.00"/>
    <lane id=":4_1_1" index="1" disallow="pedestrian tram rail_urban rail rail_electric rail_fast ship" speed="22.22" length="27.44" width="3.75" shape="609.24,686.57,20.00 626.07,708.24,20.00"/>
    <lane id=":4_1_2" index="2" disallow="pedestrian tram rail_urban rail rail_electric rail_fast ship" speed="22.22" length="27.44" width="3.75" shape="606.27,688.85,20.00 623.12,710.56,20.00"/>
  </edge>
  <edge id=":5_0" function="internal">
    <lane id=":5_0_0" index="0" disallow="pedestrian tram rail_urban rail rail_electric rail_fast ship" speed="16.67" length="114.82" width="3.75" shape="1065.93,1218.73,20.00 983.96,1138.33,20.00"/>
  </edge>
  <edge id=":5_1" function="internal">
    <lane id=":5_1_0" index="0" disallow="pedestrian tram rail_urban rail rail_electric rail_fast ship" speed="22.22" length="114.90" width="3.75" shape="1065.93,1218.73,20.00 986.76,1135.45,20.00"/>
    <lane id=":5_1_1" index="1" disallow="pedestrian tram rail_urban rail rail_electric rail_fast ship" speed="22.22" length="114.90" width="3.75" shape="1068.65,1216.14,20.00 989.48,1132.87,20.00"/>
    <lane id=":5_1_2" index="2" disallow="pedestrian tram rail_urban rail rail_electric rail_fast ship" speed="22.22" length="114.90" width="3.75" shape="1071.36,1213.56,20.00 992.21,1130.29,20.00"/>
  </edge>
  <edge id=":6_0" function="internal">
    <lane id=":6_0_0" index="0" disallow="pedestrian tram rail_urban rail rail_electric rail_fast ship" speed="19.44" length="81.77" width="3.75" shape="497.85,568.64,20.00 486.59,554.09,19.96 470.17,533.62,19.91 454.78,514.74,19.85 446.59,504.93,19.83"/>
  </edge>
  <edge id=":6_1" function="internal">
    <lane id=":6_1_0" index="0" disallow="pedestrian tram rail_urban rail rail_electric rail_fast ship" speed="22.22" length="81.92" width="3.75" shape="497.85,568.64,20.00 449.81,502.25,20.00"/>
    <lane id=":6_1_1" index="1" disallow="pedestrian tram rail_urban rail rail_electric rail_fast ship" speed="22.22" length="81.92" width="3.75" shape="500.88,566.43,20.00 452.85,500.06,20.00"/>
    <lane id=":6_1_2" index="2" disallow="pedestrian tram rail_urban rail rail_electric rail_fast ship" speed="22.22" length="81.92" width="3.75" shape="503.91,564.22,20.00 455.89,497.87,20.00"/>
  </edge>
  <edge id=":7_0" function="internal">
    <lane id=":7_0_0" index="0" disallow="pedestrian tram rail_urban rail rail_electric rail_fast ship" speed="16.67" length="49.90" width="3.75" shape="233.74,909.70,0.16 227.31,914.12,0.14 216.47,922.02,0.09 204.36,931.32,0.04 194.10,939.96"/>
  </edge>
  <edge id=":7_1" function="internal">
    <lane id=":7_1_0" index="0" disallow="pedestrian tram rail_urban rail rail_electric rail_fast ship" speed="22.22" length="49.40" width="3.75" shape="230.48,906.54 194.10,939.96"/>
    <lane id=":7_1_1" index="1" disallow="pedestrian tram rail_urban rail rail_electric rail_fast ship" speed="22.22" length="49.40" width="3.75" shape="227.94,903.78 191.57,937.20"/>
    <lane id=":7_1_2" index="2" disallow="pedestrian tram rail_urban rail rail_electric rail_fast ship" speed="22.22" length="49.40" width="3.75" shape="225.41,901.01 189.03,934.44"/>
  </edge>
  <edge id=":8_0" function="internal">
    <lane id=":8_0_0" index="0" disallow="pedestrian tram rail_urban rail rail_electric rail_fast ship" speed="16.67" length="34.08" width="3.75" shape="275.55,265.45,19.89 273.61,260.47,19.91 270.43,253.14,19.93 265.96,244.39,19.96 260.16,235.13,20.00"/>
  </edge>
  <edge id=":8_1" function="internal">
    <lane id=":8_1_0" index="0" disallow="pedestrian tram rail_urban rail rail_electric rail_fast ship" speed="22.22" length="33.35" width="3.75" shape="279.36,262.41,20.00 260.16,235.13,20.00"/>
    <lane id=":8_1_1" index="1" disallow="pedestrian tram rail_urban rail rail_electric rail_fast ship" speed="22.22" length="33.35" width="3.75" shape="282.43,260.25,20.00 263.23,232.98,20.00"/>
    <lane id=":8_1_2" index="2" disallow="pedestrian tram rail_urban rail rail_electric rail_fast ship" speed="22.22" length="33.35" width="3.75" shape="285.49,258.09,20.00 266.30,230.82,20.00"/>
  </edge>
  <edge id=":9_0" function="internal">
    <lane id=":9_0_0" index="0" disallow="pedestrian tram rail_urban rail rail_electric rail_fast ship" speed="11.11" length="17.63" width="3.75" shape="326.93,686.98,6.01 328.47,669.42,6.06"/>
  </edge>
  <edge id=":9_1" function="internal">
    <lane id=":9_1_0" index="0" disallow="pedestrian tram rail_urban rail rail_electric rail_fast ship" speed="10.42" length="18.94" width="3.75" shape="326.93,686.98,6.01 327.82,682.71,6.02 329.40,677.85,6.04 331.39,673.14,6.06 333.51,669.34,6.08"/>
  </edge>
  <edge id=":9.8_0" function="internal">
    <lane id=":9.8_0_0" index="0" disallow="pedestrian tram rail_urban rail rail_electric rail_fast ship" speed="22.22" length="0.30" width="3.75" shape="613.72,546.73 613.96,546.55"/>
    <lane id=":9.8_0_1" index="1" disallow="pedestrian tram rail_urban rail rail_electric rail_fast ship" speed="22.22" length="0.30" width="3.75" shape="615.92,549.76 616.17,549.58"/>
    <lane id=":9.8_0_2" index="2" disallow="pedestrian tram rail_urban rail rail_electric rail_fast ship" speed="22.22" length="0.30" width="3.75" shape="618.13,552.79 618.37,552.62"/>
  </edge>
  <edge id="-0" from="0.begin" to="0" priority="1" type="driving" shape="1210.81,202.87 1209.78,203.49 1208.73,204.12 1207.66,204.76 1206.56,205.41 1205.44,206.08 1204.30,206.76 1203.14,207.45 1201.95,208.15 1200.74,208.86 1199.50,209.59 1198.25,210.32 1196.97,211.07 1195.67,211.83 1194.35,212.60 1193.01,213.39 1191.64,214.18 1190.26,214.99 1188.85,215.81 1187.42,216.63 1185.97,217.47 1184.50,218.32 1183.01,219.19 1181.50,220.06 1179.97,220.94 1178.42,221.83 1176.85,222.74 1175.26,223.65 1173.65,224.58 1172.02,225.52 1170.37,226.46 1168.70,227.42 1167.02,228.38 1165.31,229.36 1163.59,230.35 1161.85,231.34 1160.09,232.35 1158.31,233.37 1156.51,234.39 1154.70,235.43 1152.87,236.47 1151.02,237.53 1149.15,238.59 1147.27,239.67 1145.36,240.75 1143.45,241.84 1141.51,242.94 1139.56,244.05 1137.59,245.17 1135.61,246.30 1133.61,247.44 1131.60,248.59 1129.57,249.74 1127.52,250.90 1125.46,252.08 1123.38,253.26 1121.29,254.45 1119.18,255.64 1117.06,256.85 1114.92,258.06 1112.77,259.28 1110.61,260.51 1108.43,261.75 1106.23,263.00 1104.03,264.25 1101.81,265.51 1099.57,266.78 1097.32,268.06 1095.06,269.34 1092.79,270.63">
    <lane id="-0_0" index="0" disallow="pedestrian tram rail_urban rail rail_electric rail_fast ship" speed="22.22" length="132.21" width="3.75" shape="1215.64,210.91 1214.61,211.53 1213.55,212.16 1212.46,212.81 1211.36,213.47 1210.23,214.14 1209.08,214.82 1207.91,215.52 1206.71,216.22 1205.49,216.94 1204.25,217.67 1202.99,218.41 1201.71,219.16 1200.40,219.93 1199.08,220.70 1197.73,221.49 1196.36,222.29 1194.97,223.09 1193.56,223.91 1192.12,224.75 1190.67,225.59 1189.20,226.44 1187.70,227.30 1186.19,228.18 1184.65,229.06 1183.10,229.96 1181.53,230.86 1179.93,231.78 1178.32,232.71 1176.69,233.65 1175.04,234.59 1173.37,235.55 1171.68,236.52 1169.97,237.50 1168.25,238.48 1166.50,239.48 1164.74,240.49 1162.96,241.51 1161.16,242.53 1159.34,243.57 1157.51,244.62 1155.66,245.67 1153.79,246.74 1151.91,247.81 1150.00,248.90 1148.09,249.99 1146.15,251.09 1144.20,252.20 1142.23,253.32 1140.25,254.45 1138.25,255.59 1136.23,256.74 1134.20,257.89 1132.15,259.05 1130.09,260.23 1128.01,261.41 1125.92,262.60 1123.81,263.79 1121.69,265.00 1119.55,266.21 1117.40,267.43 1115.24,268.66 1113.06,269.90 1110.86,271.15 1108.66,272.40 1106.44,273.66 1104.20,274.93 1101.95,276.21 1100.91,276.80" type="driving"/>
    <lane id="-0_1" index="1" disallow="pedestrian tram rail_urban rail rail_electric rail_fast ship" speed="22.22" length="132.21" width="3.75" shape="1213.70,207.70 1212.68,208.31 1211.62,208.95 1210.54,209.59 1209.44,210.25 1208.32,210.92 1207.17,211.60 1206.00,212.29 1204.81,212.99 1203.59,213.71 1202.35,214.44 1201.09,215.18 1199.81,215.93 1198.51,216.69 1197.19,217.46 1195.84,218.25 1194.47,219.04 1193.08,219.85 1191.67,220.67 1190.24,221.50 1188.79,222.34 1187.32,223.19 1185.83,224.06 1184.31,224.93 1182.78,225.81 1181.23,226.71 1179.66,227.61 1178.06,228.53 1176.45,229.46 1174.82,230.39 1173.17,231.34 1171.50,232.30 1169.81,233.26 1168.11,234.24 1166.38,235.23 1164.64,236.23 1162.88,237.23 1161.10,238.25 1159.30,239.28 1157.49,240.31 1155.65,241.36 1153.80,242.42 1151.94,243.48 1150.05,244.55 1148.15,245.64 1146.23,246.73 1144.30,247.83 1142.34,248.94 1140.38,250.06 1138.39,251.19 1136.39,252.33 1134.38,253.48 1132.35,254.63 1130.30,255.79 1128.24,256.97 1126.16,258.15 1124.07,259.34 1121.96,260.53 1119.84,261.74 1117.70,262.95 1115.55,264.17 1113.38,265.40 1111.20,266.64 1109.01,267.89 1106.80,269.14 1104.58,270.40 1102.35,271.67 1100.10,272.95 1099.06,273.54" type="driving"/>
    <lane id="-0_2" index="2" disallow="pedestrian tram rail_urban rail rail_electric rail_fast ship" speed="22.22" length="132.21" width="3.75" shape="1211.77,204.48 1210.75,205.10 1209.70,205.73 1208.62,206.37 1207.52,207.02 1206.40,207.69 1205.26,208.37 1204.09,209.06 1202.90,209.76 1201.69,210.48 1200.45,211.20 1199.20,211.94 1197.92,212.69 1196.62,213.45 1195.29,214.22 1193.95,215.01 1192.59,215.80 1191.20,216.61 1189.79,217.43 1188.36,218.26 1186.91,219.10 1185.44,219.95 1183.95,220.81 1182.44,221.68 1180.91,222.57 1179.36,223.46 1177.79,224.36 1176.19,225.28 1174.58,226.21 1172.95,227.14 1171.31,228.09 1169.64,229.04 1167.95,230.01 1166.25,230.99 1164.52,231.98 1162.78,232.97 1161.02,233.98 1159.24,235.00 1157.44,236.02 1155.63,237.06 1153.79,238.10 1151.94,239.16 1150.08,240.22 1148.19,241.30 1146.29,242.38 1144.37,243.47 1142.44,244.57 1140.49,245.68 1138.52,246.80 1136.54,247.93 1134.54,249.07 1132.52,250.22 1130.49,251.37 1128.45,252.53 1126.38,253.71 1124.31,254.89 1122.21,256.08 1120.11,257.27 1117.98,258.48 1115.85,259.69 1113.70,260.91 1111.53,262.14 1109.35,263.38 1107.16,264.63 1104.95,265.88 1102.73,267.14 1100.50,268.41 1098.25,269.69 1097.21,270.28" type="driving"/>
  </edge>