<?xml version='1.0' encoding='UTF-8'?>
<!-- generated on 2022-11-12 22:25:15 by Eclipse SUMO netconvert Version 1.13.0
<configuration xmlns:xsi="http://www.w3.org/2001/XMLSchema-instance" xsi:noNamespaceSchemaLocation="http://sumo.dlr.de/xsd/netconvertConfiguration.xsd">

    <input>
        <opendrive-files value="map_v4\3\56633727\56633727.xodr"/>
    </input>

    <output>
        <output-file value="C:\Users\LinGe\AppData\Local\Temp\tmpibwy0zo0\56633727.net.xml"/>
    </output>

    <processing>
        <geometry.max-grade.fix value="false"/>
    </processing>

    <tls_building>
        <tls.left-green.time value="0"/>
    </tls_building>

    <junctions>
        <rectangular-lane-cut value="true"/>
    </junctions>

    <report>
        <aggregate-warnings value="5"/>
    </report>

</configuration>
-->
<net xmlns:xsi="http://www.w3.org/2001/XMLSchema-instance" version="1.9" junctionCornerDetail="5" rectangularLaneCut="true" limitTurnSpeed="5.50" xsi:noNamespaceSchemaLocation="http://sumo.dlr.de/xsd/net_file.xsd">
  <location netOffset="26.89,101.66" convBoundary="0.00,0.00,1333.38,803.33" origBoundary="-26.89,-101.66,1306.49,701.66" projParameter="!"/>
  <type id="bidirectional" priority="1" speed="1.39" disallow="pedestrian tram rail_urban rail rail_electric rail_fast ship" width="3.65"/>
  <type id="border" priority="0" speed="1.39" disallow="all" discard="1" width="0.10"/>
  <type id="driving" priority="1" speed="13.89" disallow="pedestrian tram rail_urban rail rail_electric rail_fast ship" width="3.65"/>
  <type id="entry" priority="1" speed="22.22" disallow="pedestrian tram rail_urban rail rail_electric rail_fast ship" width="3.65"/>
  <type id="exit" priority="1" speed="22.22" disallow="pedestrian tram rail_urban rail rail_electric rail_fast ship" width="3.65"/>
  <type id="median" priority="0" speed="1.39" disallow="all" discard="1" width="0.10"/>
  <type id="mwyEntry" priority="1" speed="22.22" allow="private emergency authority army vip passenger hov taxi bus coach delivery truck trailer motorcycle evehicle custom1 custom2" width="3.65"/>
  <type id="mwyExit" priority="1" speed="22.22" allow="private emergency authority army vip passenger hov taxi bus coach delivery truck trailer motorcycle evehicle custom1 custom2" width="3.65"/>
  <type id="none" priority="0" speed="1.39" disallow="all" discard="1" width="1.00"/>
  <type id="offRamp" priority="1" speed="22.22" allow="private emergency authority army vip passenger hov taxi bus coach delivery truck trailer motorcycle evehicle custom1 custom2" width="3.65"/>
  <type id="onRamp" priority="1" speed="22.22" allow="private emergency authority army vip passenger hov taxi bus coach delivery truck trailer motorcycle evehicle custom1 custom2" width="3.65"/>
  <type id="parking" priority="1" speed="1.39" disallow="pedestrian tram rail_urban rail rail_electric rail_fast ship" width="2.50"/>
  <type id="rail" priority="3" speed="33.33" allow="rail_urban rail rail_electric rail_fast" width="3.65"/>
  <type id="restricted" priority="0" speed="13.89" disallow="all" width="3.65"/>
  <type id="roadWorks" priority="0" speed="1.39" allow="authority" width="3.65"/>
  <type id="shoulder" priority="0" speed="1.39" disallow="all" discard="1" width="1.00"/>
  <type id="special1" priority="1" speed="22.22" allow="custom1" discard="1" width="3.65"/>
  <type id="special2" priority="1" speed="22.22" allow="custom2" discard="1" width="3.65"/>
  <type id="special3" priority="1" speed="22.22" allow="custom1 custom2" discard="1" width="3.65"/>
  <type id="stop" priority="1" speed="13.89" disallow="pedestrian tram rail_urban rail rail_electric rail_fast ship" width="3.65"/>
  <type id="tram" priority="2" speed="13.89" allow="tram" width="3.65"/>
  <edge id=":0_0" function="internal">
    <lane id=":0_0_0" index="0" disallow="pedestrian tram rail_urban rail rail_electric rail_fast ship" speed="19.44" length="32.75" width="3.75" shape="1134.09,231.29 1123.65,233.75,0.05 1114.75,236.69,0.09 1107.81,239.60,0.13 1103.24,241.93,0.15"/>
  </edge>
  <edge id=":0_1" function="internal">
    <lane id=":0_1_0" index="0" disallow="pedestrian tram rail_urban rail rail_electric rail_fast ship" speed="22.22" length="33.09" width="3.75" shape="1134.09,231.29 1101.55,237.28"/>
    <lane id=":0_1_1" index="1" disallow="pedestrian tram rail_urban rail rail_electric rail_fast ship" speed="22.22" length="33.09" width="3.75" shape="1133.41,227.60 1100.87,233.59"/>
    <lane id=":0_1_2" index="2" disallow="pedestrian tram rail_urban rail rail_electric rail_fast ship" speed="22.22" length="33.09" width="3.75" shape="1132.73,223.92 1100.19,229.90"/>
  </edge>
  <edge id=":1_0" function="internal">
    <lane id=":1_0_0" index="0" disallow="pedestrian tram rail_urban rail rail_electric rail_fast ship" speed="16.67" length="24.72" width="3.75" shape="573.06,373.75 565.51,377.21 559.78,380.78 555.65,384.28 552.94,387.57"/>
  </edge>
  <edge id=":1_1" function="internal">
    <lane id=":1_1_0" index="0" disallow="pedestrian tram rail_urban rail rail_electric rail_fast ship" speed="22.22" length="25.37" width="3.75" shape="573.06,373.75 549.52,383.14"/>
    <lane id=":1_1_1" index="1" disallow="pedestrian tram rail_urban rail rail_electric rail_fast ship" speed="22.22" length="25.37" width="3.75" shape="571.68,370.27 548.12,379.66"/>
    <lane id=":1_1_2" index="2" disallow="pedestrian tram rail_urban rail rail_electric rail_fast ship" speed="22.22" length="25.37" width="3.75" shape="570.30,366.78 546.71,376.19"/>
  </edge>
  <edge id=":10_0" function="internal">
    <lane id=":10_0_0" index="0" disallow="pedestrian tram rail_urban rail rail_electric rail_fast ship" speed="20.83" length="35.75" width="3.75" shape="180.06,104.45,20.00 175.96,100.63,20.00 169.39,95.15,20.00 161.01,88.99,20.00 151.48,83.13,20.00"/>
  </edge>
  <edge id=":10_1" function="internal">
    <lane id=":10_1_0" index="0" disallow="pedestrian tram rail_urban rail rail_electric rail_fast ship" speed="22.22" length="34.97" width="3.75" shape="182.17,99.89,20.00 151.48,83.13,20.00"/>
    <lane id=":10_1_1" index="1" disallow="pedestrian tram rail_urban rail rail_electric rail_fast ship" speed="22.22" length="34.97" width="3.75" shape="183.97,96.60,20.00 153.28,79.83,20.00"/>
    <lane id=":10_1_2" index="2" disallow="pedestrian tram rail_urban rail rail_electric rail_fast ship" speed="22.22" length="34.97" width="3.75" shape="185.77,93.31,20.00 155.07,76.54,20.00"/>
  </edge>
  <edge id=":11_0" function="internal">
    <lane id=":11_0_0" index="0" disallow="pedestrian tram rail_urban rail rail_electric rail_fast ship" speed="16.67" length="174.55" width="3.75" shape="966.95,235.69 1139.17,207.26"/>
  </edge>
  <edge id=":11_1" function="internal">
    <lane id=":11_1_0" index="0" disallow="pedestrian tram rail_urban rail rail_electric rail_fast ship" speed="22.22" length="174.35" width="3.75" shape="967.79,239.62 1139.17,207.26"/>
    <lane id=":11_1_1" index="1" disallow="pedestrian tram rail_urban rail rail_electric rail_fast ship" speed="22.22" length="174.35" width="3.75" shape="968.53,243.30 1139.85,210.95"/>
    <lane id=":11_1_2" index="2" disallow="pedestrian tram rail_urban rail rail_electric rail_fast ship" speed="22.22" length="174.35" width="3.75" shape="969.26,246.97 1140.53,214.64"/>
  </edge>
  <edge id=":12_0" function="internal">
    <lane id=":12_0_0" index="0" disallow="pedestrian tram rail_urban rail rail_electric rail_fast ship" speed="16.67" length="27.01" width="3.75" shape="690.26,405.23,20.00 688.46,401.12,20.00 685.16,396.16,20.00 680.08,390.68,20.00 672.96,385.02,20.00"/>
  </edge>
  <edge id=":12_1" function="internal">
    <lane id=":12_1_0" index="0" disallow="pedestrian tram rail_urban rail rail_electric rail_fast ship" speed="22.22" length="25.52" width="3.75" shape="693.88,399.56,20.00 672.96,385.02,20.00"/>
    <lane id=":12_1_1" index="1" disallow="pedestrian tram rail_urban rail rail_electric rail_fast ship" speed="22.22" length="25.52" width="3.75" shape="696.03,396.50,20.00 675.08,381.93,20.00"/>
    <lane id=":12_1_2" index="2" disallow="pedestrian tram rail_urban rail rail_electric rail_fast ship" speed="22.22" length="25.52" width="3.75" shape="698.19,393.43,20.00 677.20,378.83,20.00"/>
  </edge>
  <edge id=":13_0" function="internal">
    <lane id=":13_0_0" index="0" disallow="pedestrian tram rail_urban rail rail_electric rail_fast ship" speed="18.06" length="141.30" width="3.75" shape="451.27,394.99,0.00 583.53,345.24"/>
  </edge>
  <edge id=":13_1" function="internal">
    <lane id=":13_1_0" index="0" disallow="pedestrian tram rail_urban rail rail_electric rail_fast ship" speed="22.22" length="141.09" width="3.75" shape="452.81,398.66 583.53,345.24"/>
    <lane id=":13_1_1" index="1" disallow="pedestrian tram rail_urban rail rail_electric rail_fast ship" speed="22.22" length="141.09" width="3.75" shape="454.28,402.11 584.88,348.74"/>
    <lane id=":13_1_2" index="2" disallow="pedestrian tram rail_urban rail rail_electric rail_fast ship" speed="22.22" length="141.09" width="3.75" shape="455.75,405.56 586.24,352.24"/>
  </edge>
  <edge id=":14_0" function="internal">
    <lane id=":14_0_0" index="0" disallow="pedestrian tram rail_urban rail rail_electric rail_fast ship" speed="15.97" length="29.16" width="3.75" shape="584.91,294.30,20.00 587.26,298.31,20.00 591.39,303.24,20.00 597.43,308.72,20.00 605.55,314.41,20.00"/>
  </edge>
  <edge id=":14_1" function="internal">
    <lane id=":14_1_0" index="0" disallow="pedestrian tram rail_urban rail rail_electric rail_fast ship" speed="22.22" length="27.72" width="3.75" shape="581.87,299.96,20.00 605.55,314.41,20.00"/>
    <lane id=":14_1_1" index="1" disallow="pedestrian tram rail_urban rail rail_electric rail_fast ship" speed="22.22" length="27.72" width="3.75" shape="579.93,303.16,20.00 603.59,317.60,20.00"/>
    <lane id=":14_1_2" index="2" disallow="pedestrian tram rail_urban rail rail_electric rail_fast ship" speed="22.22" length="27.72" width="3.75" shape="577.98,306.37,20.00 601.62,320.80,20.00"/>
  </edge>
  <edge id=":15_0" function="internal">
    <lane id=":15_0_0" index="0" disallow="pedestrian tram rail_urban rail rail_electric rail_fast ship" speed="22.22" length="7.99" width="3.75" shape="630.08,351.98 622.60,354.74"/>
    <lane id=":15_0_1" index="1" disallow="pedestrian tram rail_urban rail rail_electric rail_fast ship" speed="22.22" length="7.99" width="3.75" shape="628.79,348.46 621.29,351.23"/>
    <lane id=":15_0_2" index="2" disallow="pedestrian tram rail_urban rail rail_electric rail_fast ship" speed="22.22" length="7.99" width="3.75" shape="627.49,344.94 619.98,347.71"/>
  </edge>
  <edge id=":15_3" function="internal">
    <lane id=":15_3_0" index="0" disallow="pedestrian tram rail_urban rail rail_electric rail_fast ship" speed="18.06" length="7.98" width="3.75" shape="630.08,351.97,0.00 622.60,354.74"/>
  </edge>
  <edge id=":15.14_0" function="internal">
    <lane id=":15.14_0_0" index="0" disallow="pedestrian tram rail_urban rail rail_electric rail_fast ship" speed="22.22" length="0.30" width="3.75" shape="668.64,354.63,20.00 668.89,354.80,20.00"/>
    <lane id=":15.14_0_1" index="1" disallow="pedestrian tram rail_urban rail rail_electric rail_fast ship" speed="22.22" length="0.30" width="3.75" shape="666.56,357.75,20.00 666.81,357.92,20.00"/>
    <lane id=":15.14_0_2" index="2" disallow="pedestrian tram rail_urban rail rail_electric rail_fast ship" speed="22.22" length="0.30" width="3.75" shape="664.48,360.87,20.00 664.73,361.03,20.00"/>
  </edge>
  <edge id=":2_0" function="internal">
    <lane id=":2_0_0" index="0" disallow="pedestrian tram rail_urban rail rail_electric rail_fast ship" speed="20.83" length="49.03" width="3.75" shape="137.78,539.13 149.61,533.12 162.65,525.74 173.88,518.96 180.29,514.77"/>
  </edge>
  <edge id=":2_1" function="internal">
    <lane id=":2_1_0" index="0" disallow="pedestrian tram rail_urban rail rail_electric rail_fast ship" speed="22.22" length="49.25" width="3.75" shape="137.78,539.13 182.58,518.67"/>
    <lane id=":2_1_1" index="1" disallow="pedestrian tram rail_urban rail rail_electric rail_fast ship" speed="22.22" length="49.25" width="3.75" shape="139.34,542.54 184.14,522.08"/>
    <lane id=":2_1_2" index="2" disallow="pedestrian tram rail_urban rail rail_electric rail_fast ship" speed="22.22" length="49.25" width="3.75" shape="140.90,545.95 185.69,525.49"/>
  </edge>
  <edge id=":2.1_0" function="internal">
    <lane id=":2.1_0_0" index="0" disallow="pedestrian tram rail_urban rail rail_electric rail_fast ship" speed="22.22" length="0.30" width="3.75" shape="674.24,336.45 673.97,336.54"/>
    <lane id=":2.1_0_1" index="1" disallow="pedestrian tram rail_urban rail rail_electric rail_fast ship" speed="22.22" length="0.30" width="3.75" shape="673.06,332.89 672.78,332.99"/>
    <lane id=":2.1_0_2" index="2" disallow="pedestrian tram rail_urban rail rail_electric rail_fast ship" speed="22.22" length="0.30" width="3.75" shape="671.88,329.33 671.59,329.43"/>
  </edge>
  <edge id=":21.20_0" function="internal">
    <lane id=":21.20_0_0" index="0" disallow="pedestrian tram rail_urban rail rail_electric rail_fast ship" speed="22.22" length="0.30" width="3.75" shape="656.27,373.72,20.00 656.02,373.56,20.00"/>
    <lane id=":21.20_0_1" index="1" disallow="pedestrian tram rail_urban rail rail_electric rail_fast ship" speed="22.22" length="0.30" width="3.75" shape="658.35,370.60,20.00 658.10,370.44,20.00"/>
    <lane id=":21.20_0_2" index="2" disallow="pedestrian tram rail_urban rail rail_electric rail_fast ship" speed="22.22" length="0.30" width="3.75" shape="660.43,367.49,20.00 660.18,367.32,20.00"/>
  </edge>
  <edge id=":25.24_0" function="internal">
    <lane id=":25.24_0_0" index="0" disallow="pedestrian tram rail_urban rail rail_electric rail_fast ship" speed="16.67" length="0.30" width="3.75" shape="997.45,494.71,11.83 997.42,495.00,11.85"/>
  </edge>
  <edge id=":27.26_0" function="internal">
    <lane id=":27.26_0_0" index="0" disallow="pedestrian tram rail_urban rail rail_electric rail_fast ship" speed="16.67" length="0.30" width="3.75" shape="730.14,518.54,11.36 729.84,518.49,11.35"/>
  </edge>
  <edge id=":29.28_0" function="internal">
    <lane id=":29.28_0_0" index="0" disallow="pedestrian tram rail_urban rail rail_electric rail_fast ship" speed="19.44" length="0.30" width="3.75" shape="255.98,307.36,10.41 255.99,307.06,10.42"/>
  </edge>
  <edge id=":3_0" function="internal">
    <lane id=":3_0_0" index="0" disallow="pedestrian tram rail_urban rail rail_electric rail_fast ship" speed="15.97" length="27.03" width="3.75" shape="653.06,319.62 661.57,316.22 668.20,312.72 673.05,309.33 676.25,306.23"/>
  </edge>
  <edge id=":3_1" function="internal">
    <lane id=":3_1_0" index="0" disallow="pedestrian tram rail_urban rail rail_electric rail_fast ship" speed="22.22" length="19.41" width="3.75" shape="653.06,319.62 671.49,313.39"/>
    <lane id=":3_1_1" index="1" disallow="pedestrian tram rail_urban rail rail_electric rail_fast ship" speed="22.22" length="19.41" width="3.75" shape="654.29,323.16 672.67,316.95"/>
    <lane id=":3_1_2" index="2" disallow="pedestrian tram rail_urban rail rail_electric rail_fast ship" speed="22.22" length="19.41" width="3.75" shape="655.52,326.71 673.86,320.51"/>
  </edge>
  <edge id=":31.30_0" function="internal">
    <lane id=":31.30_0_0" index="0" disallow="pedestrian tram rail_urban rail rail_electric rail_fast ship" speed="11.11" length="0.30" width="3.75" shape="751.96,237.68,8.18 752.26,237.72,8.17"/>
  </edge>
  <edge id=":33.32_0" function="internal">
    <lane id=":33.32_0_0" index="0" disallow="pedestrian tram rail_urban rail rail_electric rail_fast ship" speed="11.11" length="0.26" width="3.75" shape="612.94,467.93,9.99 613.20,467.96,10.02"/>
  </edge>
  <edge id=":35.34_0" function="internal">
    <lane id=":35.34_0_0" index="0" disallow="pedestrian tram rail_urban rail rail_electric rail_fast ship" speed="13.89" length="0.30" width="3.75" shape="28.37,404.30,9.03 28.55,404.54,9.03"/>
  </edge>
  <edge id=":37.36_0" function="internal">
    <lane id=":37.36_0_0" index="0" disallow="pedestrian tram rail_urban rail rail_electric rail_fast ship" speed="9.72" length="0.24" width="3.75" shape="637.17,247.55,9.98 636.93,247.53,10.02"/>
  </edge>
  <edge id=":39.38_0" function="internal">
    <lane id=":39.38_0_0" index="0" disallow="pedestrian tram rail_urban rail rail_electric rail_fast ship" speed="13.89" length="0.30" width="3.75" shape="1226.00,228.50,8.31 1225.75,228.34,8.30"/>
  </edge>
  <edge id=":4_0" function="internal">
    <lane id=":4_0_0" index="0" disallow="pedestrian tram rail_urban rail rail_electric rail_fast ship" speed="16.67" length="40.12" width="3.75" shape="210.13,89.27,20.00 220.81,94.47,19.98 231.81,99.01,19.96 241.24,102.50,19.94 247.17,104.57,19.93"/>
  </edge>
  <edge id=":4_1" function="internal">
    <lane id=":4_1_0" index="0" disallow="pedestrian tram rail_urban rail rail_electric rail_fast ship" speed="22.22" length="40.21" width="3.75" shape="210.13,89.27,20.00 245.40,108.60,20.00"/>
    <lane id=":4_1_1" index="1" disallow="pedestrian tram rail_urban rail rail_electric rail_fast ship" speed="22.22" length="40.21" width="3.75" shape="208.33,92.56,20.00 243.59,111.89,20.00"/>
    <lane id=":4_1_2" index="2" disallow="pedestrian tram rail_urban rail rail_electric rail_fast ship" speed="22.22" length="40.21" width="3.75" shape="206.53,95.85,20.00 241.79,115.18,20.00"/>
  </edge>
  <edge id=":5_0" function="internal">
    <lane id=":5_0_0" index="0" disallow="pedestrian tram rail_urban rail rail_electric rail_fast ship" speed="18.06" length="85.58" width="3.75" shape="774.10,429.70,20.00 844.78,477.96,19.86"/>
  </edge>
  <edge id=":5_1" function="internal">
    <lane id=":5_1_0" index="0" disallow="pedestrian tram rail_urban rail rail_electric rail_fast ship" speed="22.22" length="85.76" width="3.75" shape="774.10,429.70,20.00 842.55,481.47,20.00"/>
    <lane id=":5_1_1" index="1" disallow="pedestrian tram rail_urban rail rail_electric rail_fast ship" speed="22.22" length="85.76" width="3.75" shape="771.86,432.71,20.00 840.26,484.44,20.00"/>
    <lane id=":5_1_2" index="2" disallow="pedestrian tram rail_urban rail rail_electric rail_fast ship" speed="22.22" length="85.76" width="3.75" shape="769.63,435.72,20.00 837.98,487.42,20.00"/>
  </edge>
  <edge id=":6_0" function="internal">
    <lane id=":6_0_0" index="0" disallow="pedestrian tram rail_urban rail rail_electric rail_fast ship" speed="19.44" length="124.55" width="3.75" shape="1139.67,746.48,20.00 1040.23,671.46,20.00"/>
  </edge>
  <edge id=":6_1" function="internal">
    <lane id=":6_1_0" index="0" disallow="pedestrian tram rail_urban rail rail_electric rail_fast ship" speed="22.22" length="124.61" width="3.75" shape="1139.67,746.48,20.00 1042.66,668.27,20.00"/>
    <lane id=":6_1_1" index="1" disallow="pedestrian tram rail_urban rail rail_electric rail_fast ship" speed="22.22" length="124.61" width="3.75" shape="1142.02,743.56,20.00 1045.01,665.35,20.00"/>
    <lane id=":6_1_2" index="2" disallow="pedestrian tram rail_urban rail rail_electric rail_fast ship" speed="22.22" length="124.61" width="3.75" shape="1144.38,740.64,20.00 1047.36,662.42,20.00"/>
  </edge>
  <edge id=":7_0" function="internal">
    <lane id=":7_0_0" index="0" disallow="pedestrian tram rail_urban rail rail_electric rail_fast ship" speed="18.06" length="116.65" width="3.75" shape="531.66,296.44,20.00 510.77,284.93,20.00 477.06,266.91,20.00 444.92,249.91,20.00 428.75,241.51,20.00"/>
  </edge>
  <edge id=":7_1" function="internal">
    <lane id=":7_1_0" index="0" disallow="pedestrian tram rail_urban rail rail_electric rail_fast ship" speed="22.22" length="116.65" width="3.75" shape="531.66,296.44,20.00 430.77,238.00,20.00"/>
    <lane id=":7_1_1" index="1" disallow="pedestrian tram rail_urban rail rail_electric rail_fast ship" speed="22.22" length="116.65" width="3.75" shape="533.56,293.21,20.00 432.62,234.74,20.00"/>
    <lane id=":7_1_2" index="2" disallow="pedestrian tram rail_urban rail rail_electric rail_fast ship" speed="22.22" length="116.65" width="3.75" shape="535.47,289.98,20.00 434.48,231.48,20.00"/>
  </edge>
  <edge id=":8_0" function="internal">
    <lane id=":8_0_0" index="0" disallow="pedestrian tram rail_urban rail rail_electric rail_fast ship" speed="19.44" length="70.41" width="3.75" shape="1039.88,631.22,20.00 1047.77,638.88,20.00 1062.75,652.82,20.00 1079.29,667.82,20.00 1091.87,678.69,20.00"/>
  </edge>
  <edge id=":8_1" function="internal">
    <lane id=":8_1_0" index="0" disallow="pedestrian tram rail_urban rail rail_electric rail_fast ship" speed="22.22" length="70.01" width="3.75" shape="1037.30,634.82,20.00 1091.87,678.69,20.00"/>
    <lane id=":8_1_1" index="1" disallow="pedestrian tram rail_urban rail rail_electric rail_fast ship" speed="22.22" length="70.01" width="3.75" shape="1034.95,637.74,20.00 1089.51,681.61,20.00"/>
    <lane id=":8_1_2" index="2" disallow="pedestrian tram rail_urban rail rail_electric rail_fast ship" speed="22.22" length="70.01" width="3.75" shape="1032.61,640.67,20.00 1087.16,684.53,20.00"/>
  </edge>
  <edge id=":9_0" function="internal">
    <lane id=":9_0_0" index="0" disallow="pedestrian tram rail_urban rail rail_electric rail_fast ship" speed="19.44" length="65.34" width="3.75" shape="179.92,549.58,0.16 170.28,552.95,0.14 152.71,559.39,0.09 133.47,566.73,0.04 118.85,572.77"/>
  </edge>
  <edge id=":9_1" function="internal">
    <lane id=":9_1_0" index="0" disallow="pedestrian tram rail_urban rail rail_electric rail_fast ship" speed="22.22" length="64.99" width="3.75" shape="177.96,545.76 118.85,572.77"/>
    <lane id=":9_1_1" index="1" disallow="pedestrian tram rail_urban rail rail_electric rail_fast ship" speed="22.22" length="64.99" width="3.75" shape="176.40,542.35 117.29,569.36"/>
    <lane id=":9_1_2" index="2" disallow="pedestrian tram rail_urban rail rail_electric rail_fast ship" speed="22.22" length="64.99" width="3.75" shape="174.84,538.94 115.73,565.95"/>
  </edge>
  <edge id=":9.10_0" function="internal">
    <lane id=":9.10_0_0" index="0" disallow="pedestrian tram rail_urban rail rail_electric rail_fast ship" speed="22.22" length="4.87" width="3.75" shape="671.67,313.33 667.06,314.87"/>
    <lane id=":9.10_0_1" index="1" disallow="pedestrian tram rail_urban rail rail_electric rail_fast ship" speed="22.22" length="4.87" width="3.75" shape="672.86,316.89 668.24,318.43"/>
    <lane id=":9.10_0_2" index="2" disallow="pedestrian tram rail_urban rail rail_electric rail_fast ship" speed="22.22" length="4.87" width="3.75" shape="674.05,320.44 669.42,321.98"/>
  </edge>
  <edge id="-0" from="0.begin" to="0" priority="1" type="driving" shape="1227.53,203.56 1226.11,203.88 1224.66,204.19 1223.20,204.51 1221.70,204.84 1220.19,205.16 1218.65,205.49 1217.09,205.82 1215.51,206.15 1213.91,206.49 1212.28,206.82 1210.63,207.16 1208.96,207.50 1207.27,207.85 1205.55,208.20 1203.82,208.54 1202.06,208.90 1200.28,209.25 1198.48,209.61 1196.66,209.97 1194.82,210.33 1192.96,210.69 1191.08,211.06 1189.17,211.43 1187.25,211.80 1185.31,212.17 1183.35,212.55 1181.37,212.93 1179.37,213.31 1177.35,213.70 1175.31,214.08 1173.26,214.47 1171.18,214.86 1169.09,215.26 1166.98,215.66 1164.84,216.05 1162.70,216.46 1160.53,216.86 1158.35,217.27 1156.15,217.68 1153.93,218.09 1151.69,218.51 1149.44,218.92 1147.17,219.34 1144.89,219.77 1142.58,220.19 1140.27,220.62 1137.93,221.05 1135.58,221.48 1133.22,221.92 1130.83,222.36 1128.44,222.80">
    <lane id="-0_0" index="0" disallow="pedestrian tram rail_urban rail rail_electric rail_fast ship" speed="22.22" length="97.13" width="3.75" shape="1229.56,212.71 1228.13,213.03 1226.67,213.35 1225.18,213.68 1223.68,214.00 1222.15,214.33 1220.60,214.66 1219.03,214.99 1217.43,215.33 1215.81,215.66 1214.18,216.00 1212.51,216.35 1210.83,216.69 1209.13,217.04 1207.41,217.38 1205.66,217.74 1203.89,218.09 1202.11,218.45 1200.30,218.80 1198.47,219.16 1196.62,219.53 1194.75,219.89 1192.87,220.26 1190.96,220.63 1189.03,221.00 1187.08,221.38 1185.12,221.76 1183.13,222.14 1181.12,222.52 1179.10,222.91 1177.06,223.29 1175.00,223.68 1172.92,224.08 1170.82,224.47 1168.71,224.87 1166.57,225.27 1164.42,225.67 1162.25,226.08 1160.07,226.48 1157.86,226.90 1155.64,227.31 1153.40,227.72 1151.15,228.14 1148.88,228.56 1146.59,228.99 1144.29,229.41 1141.97,229.84 1139.63,230.27 1137.28,230.70 1134.91,231.14 1134.09,231.29" type="driving"/>
    <lane id="-0_1" index="1" disallow="pedestrian tram rail_urban rail rail_electric rail_fast ship" speed="22.22" length="97.13" width="3.75" shape="1228.75,209.05 1227.32,209.37 1225.87,209.69 1224.39,210.01 1222.89,210.34 1221.37,210.66 1219.82,210.99 1218.25,211.32 1216.66,211.66 1215.05,211.99 1213.42,212.33 1211.76,212.67 1210.08,213.02 1208.38,213.36 1206.66,213.71 1204.92,214.06 1203.16,214.41 1201.38,214.77 1199.57,215.13 1197.75,215.49 1195.90,215.85 1194.04,216.21 1192.15,216.58 1190.24,216.95 1188.32,217.32 1186.37,217.70 1184.41,218.07 1182.43,218.45 1180.42,218.84 1178.40,219.22 1176.36,219.61 1174.30,220.00 1172.22,220.39 1170.13,220.79 1168.01,221.18 1165.88,221.58 1163.73,221.99 1161.56,222.39 1159.38,222.80 1157.18,223.21 1154.96,223.62 1152.72,224.04 1150.47,224.45 1148.20,224.87 1145.91,225.30 1143.61,225.72 1141.29,226.15 1138.95,226.58 1136.60,227.02 1134.23,227.45 1133.41,227.60" type="driving"/>
    <lane id="-0_2" index="2" disallow="pedestrian tram rail_urban rail rail_electric rail_fast ship" speed="22.22" length="97.13" width="3.75" shape="1227.93,205.39 1226.51,205.71 1225.06,206.03 1223.59,206.35 1222.10,206.67 1220.58,207.00 1219.04,207.32 1217.48,207.65 1215.90,207.99 1214.29,208.32 1212.66,208.66 1211.01,209.00 1209.33,209.34 1207.64,209.69 1205.92,210.03 1204.18,210.38 1202.42,210.73 1200.64,211.09 1198.84,211.45 1197.02,211.81 1195.18,212.17 1193.32,212.53 1191.43,212.90 1189.53,213.27 1187.61,213.64 1185.67,214.01 1183.70,214.39 1181.72,214.77 1179.72,215.15 1177.70,215.54 1175.66,215.92 1173.60,216.31 1171.53,216.71 1169.43,217.10 1167.32,217.50 1165.19,217.90 1163.04,218.30 1160.88,218.70 1158.69,219.11 1156.49,219.52 1154.27,219.93 1152.04,220.35 1149.78,220.77 1147.51,221.19 1145.23,221.61 1142.93,222.04 1140.61,222.46 1138.27,222.89 1135.92,223.33 1133.56,223.76 1132.73,223.92" type="driving"/>
  </edge>
  <edge id="-1" from="0" to="2.1" priority="1" type="driving" shape="1128.44,222.80 1126.83,223.09 1125.21,223.39 1123.59,223.69 1121.96,223.99 1120.33,224.29 1118.68,224.59 1117.04,224.89 1115.38,225.20 1113.72,225.50 1112.05,225.81 1110.38,226.12 1108.70,226.43 1107.01,226.74 1105.32,227.05 1103.62,227.36 1101.92,227.68 1100.20,227.99 1098.49,228.31 1096.76,228.62 1095.04,228.94 1093.30,229.26 1091.56,229.58 1089.82,229.90 1088.06,230.23 1086.31,230.55 1084.55,230.88 1082.78,231.20 1081.00,231.53 1079.22,231.86 1077.44,232.19 1075.65,232.52 1073.86,232.86 1072.06,233.19 1070.25,233.53 1068.44,233.86 1066.62,234.20 1064.80,234.54 1062.98,234.88 1061.15,235.22 1059.31,235.57 1057.47,235.91 1055.63,236.25 1053.78,236.60 1051.93,236.95 1050.07,237.30 1048.20,237.65 1046.34,238.00 1044.46,238.35 1042.59,238.71 1040.71,239.06 1038.82,239.42 1036.93,239.78 1035.04,240.13 1033.14,240.49 1031.24,240.86 1029.33,241.22 1027.42,241.58 1025.51,241.95 1023.59,242.31 1021.67,242.68 1019.74,243.05 1017.81,243.42 1015.88,243.79 1013.94,244.16 1012.00,244.54 1010.06,244.91 1008.11,245.29 1006.16,245.67 1004.20,246.05 1002.25,246.43 1000.29,246.81 998.32,247.19 996.35,247.58 994.38,247.96 992.41,248.35 990.43,248.74 988.45,249.12 986.47,249.51 984.48,249.91 982.50,250.30 980.50,250.69 978.51,251.09 976.51,251.49 974.51,251.88 972.51,252.28 970.51,252.68 968.50,253.09 966.49,253.49 964.48,253.90 962.46,254.30 960.45,254.71 958.43,255.12 956.41,255.53 954.38,255.94 952.36,256.35 950.33,256.76 948.30,257.18 946.27,257.60 944.23,258.01 942.20,258.43 940.16,258.85 938.12,259.27 936.08,259.70 934.04,260.12 931.99,260.55 929.95,260.97 927.90,261.40 925.85,261.83 923.80,262.26 921.75,262.69 919.70,263.13 917.65,263.56 915.59,264.00 913.53,264.44 911.48,264.87 909.42,265.32 907.36,265.76 905.30,266.20 903.24,266.64 901.17,267.09 899.11,267.54 897.05,267.98 894.98,268.43 892.92,268.88 890.85,269.34 888.78,269.79 886.72,270.24 884.65,270.70 882.58,271.16 880.51,271.62 878.44,272.08 876.37,272.54 874.31,273.00 872.24,273.47 870.17,273.93 868.10,274.40 866.03,274.87 863.96,275.34 861.89,275.81 859.82,276.28 857.75,276.76 855.68,277.23 853.61,277.71 851.54,278.19 849.48,278.66 847.41,279.15 845.34,279.63 843.27,280.11 841.21,280.60 839.14,281.08 837.08,281.57 835.01,282.06 832.95,282.55 830.89,283.04 828.83,283.53 826.77,284.03 824.71,284.53 822.65,285.02 820.59,285.52 818.53,286.02 816.48,286.52 814.43,287.03 812.37,287.53 810.32,288.04 808.27,288.54 806.22,289.05 804.17,289.56 802.13,290.07 800.09,290.59 798.04,291.10 796.00,291.62 793.96,292.13 791.93,292.65 789.89,293.17 787.86,293.69 785.82,294.21 783.79,294.74 781.77,295.26 779.74,295.79 777.72,296.32 775.70,296.85 773.68,297.38 771.66,297.91 769.65,298.45 767.63,298.98 765.62,299.52 763.62,300.06 761.61,300.60 759.61,301.14 757.61,301.68 755.61,302.22 753.62,302.77 751.63,303.32 749.64,303.86 747.65,304.41 745.67,304.97 743.69,305.52 741.71,306.07 739.74,306.63 737.77,307.19 735.80,307.74 733.84,308.30 731.88,308.86 729.92,309.43 727.96,309.99 726.01,310.56 724.06,311.12 722.12,311.69 720.18,312.26 718.24,312.84 716.31,313.41 714.38,313.98 712.45,314.56 710.53,315.14 708.61,315.72 706.70,316.30 704.79,316.88 702.88,317.46 700.98,318.05 699.08,318.63 697.19,319.22 695.30,319.81 693.41,320.40 691.53,320.99 689.66,321.59 687.78,322.18 685.92,322.78 684.05,323.37 682.19,323.97 680.34,324.58 678.49,325.18 676.65,325.78 674.81,326.39 672.97,326.99 671.14,327.60">