<?xml version='1.0' encoding='UTF-8'?>
<!-- generated on 2022-11-12 23:40:05 by Eclipse SUMO netconvert Version 1.13.0
<configuration xmlns:xsi="http://www.w3.org/2001/XMLSchema-instance" xsi:noNamespaceSchemaLocation="http://sumo.dlr.de/xsd/netconvertConfiguration.xsd">

    <input>
        <opendrive-files value="map_v4\13\57223565\57223565.xodr"/>
    </input>

    <output>
        <output-file value="C:\Users\LinGe\AppData\Local\Temp\tmpeexzgflq\57223565.net.xml"/>
    </output>

    <processing>
        <geometry.max-grade.fix value="false"/>
    </processing>

    <tls_building>
        <tls.left-green.time value="0"/>
    </tls_building>

    <junctions>
        <rectangular-lane-cut value="true"/>
    </junctions>

    <report>
        <aggregate-warnings value="5"/>
    </report>

</configuration>
-->
<net xmlns:xsi="http://www.w3.org/2001/XMLSchema-instance" version="1.9" junctionCornerDetail="5" rectangularLaneCut="true" limitTurnSpeed="5.50" xsi:noNamespaceSchemaLocation="http://sumo.dlr.de/xsd/net_file.xsd">
  <location netOffset="1.56,101.26" convBoundary="0.00,0.00,1102.73,1302.51" origBoundary="-1.56,-101.26,1101.18,1201.26" projParameter="!"/>
  <type id="bidirectional" priority="1" speed="1.39" disallow="pedestrian tram rail_urban rail rail_electric rail_fast ship" width="3.65"/>
  <type id="border" priority="0" speed="1.39" disallow="all" discard="1" width="0.10"/>
  <type id="driving" priority="1" speed="13.89" disallow="pedestrian tram rail_urban rail rail_electric rail_fast ship" width="3.65"/>
  <type id="entry" priority="1" speed="22.22" disallow="pedestrian tram rail_urban rail rail_electric rail_fast ship" width="3.65"/>
  <type id="exit" priority="1" speed="22.22" disallow="pedestrian tram rail_urban rail rail_electric rail_fast ship" width="3.65"/>
  <type id="median" priority="0" speed="1.39" disallow="all" discard="1" width="0.10"/>
  <type id="mwyEntry" priority="1" speed="22.22" allow="private emergency authority army vip passenger hov taxi bus coach delivery truck trailer motorcycle evehicle custom1 custom2" width="3.65"/>
  <type id="mwyExit" priority="1" speed="22.22" allow="private emergency authority army vip passenger hov taxi bus coach delivery truck trailer motorcycle evehicle custom1 custom2" width="3.65"/>
  <type id="none" priority="0" speed="1.39" disallow="all" discard="1" width="1.00"/>
  <type id="offRamp" priority="1" speed="22.22" allow="private emergency authority army vip passenger hov taxi bus coach delivery truck trailer motorcycle evehicle custom1 custom2" width="3.65"/>
  <type id="onRamp" priority="1" speed="22.22" allow="private emergency authority army vip passenger hov taxi bus coach delivery truck trailer motorcycle evehicle custom1 custom2" width="3.65"/>
  <type id="parking" priority="1" speed="1.39" disallow="pedestrian tram rail_urban rail rail_electric rail_fast ship" width="2.50"/>
  <type id="rail" priority="3" speed="33.33" allow="rail_urban rail rail_electric rail_fast" width="3.65"/>
  <type id="restricted" priority="0" speed="13.89" disallow="all" width="3.65"/>
  <type id="roadWorks" priority="0" speed="1.39" allow="authority" width="3.65"/>
  <type id="shoulder" priority="0" speed="1.39" disallow="all" discard="1" width="1.00"/>
  <type id="special1" priority="1" speed="22.22" allow="custom1" discard="1" width="3.65"/>
  <type id="special2" priority="1" speed="22.22" allow="custom2" discard="1" width="3.65"/>
  <type id="special3" priority="1" speed="22.22" allow="custom1 custom2" discard="1" width="3.65"/>
  <type id="stop" priority="1" speed="13.89" disallow="pedestrian tram rail_urban rail rail_electric rail_fast ship" width="3.65"/>
  <type id="tram" priority="2" speed="13.89" allow="tram" width="3.65"/>
  <edge id=":0_0" function="internal">
    <lane id=":0_0_0" index="0" disallow="pedestrian tram rail_urban rail rail_electric rail_fast ship" speed="15.97" length="58.41" width="3.75" shape="905.33,331.33 892.96,339.37 878.05,349.79 864.83,359.39 857.56,364.92"/>
  </edge>
  <edge id=":0_1" function="internal">
    <lane id=":0_1_0" index="0" disallow="pedestrian tram rail_urban rail rail_electric rail_fast ship" speed="22.22" length="58.56" width="3.75" shape="905.33,331.33 855.05,361.35"/>
    <lane id=":0_1_1" index="1" disallow="pedestrian tram rail_urban rail rail_electric rail_fast ship" speed="22.22" length="58.56" width="3.75" shape="903.41,328.11 853.12,358.13"/>
    <lane id=":0_1_2" index="2" disallow="pedestrian tram rail_urban rail rail_electric rail_fast ship" speed="22.22" length="58.56" width="3.75" shape="901.49,324.89 851.20,354.91"/>
  </edge>
  <edge id=":1_0" function="internal">
    <lane id=":1_0_0" index="0" disallow="pedestrian tram rail_urban rail rail_electric rail_fast ship" speed="22.22" length="53.56" width="3.75" shape="154.09,845.42 164.01,835.56 175.29,823.47 185.06,812.53 190.46,806.13"/>
  </edge>
  <edge id=":1_1" function="internal">
    <lane id=":1_1_0" index="0" disallow="pedestrian tram rail_urban rail rail_electric rail_fast ship" speed="22.22" length="53.80" width="3.75" shape="154.09,845.42 193.80,809.10"/>
    <lane id=":1_1_1" index="1" disallow="pedestrian tram rail_urban rail rail_electric rail_fast ship" speed="22.22" length="53.80" width="3.75" shape="156.62,848.18 196.32,811.87"/>
    <lane id=":1_1_2" index="2" disallow="pedestrian tram rail_urban rail rail_electric rail_fast ship" speed="22.22" length="53.80" width="3.75" shape="159.16,850.94 198.84,814.65"/>
  </edge>
  <edge id=":10_0" function="internal">
    <lane id=":10_0_0" index="0" disallow="pedestrian tram rail_urban rail rail_electric rail_fast ship" speed="15.97" length="58.02" width="3.75" shape="846.53,982.31,20.00 850.96,990.23,20.00 859.07,1004.26,20.00 868.37,1019.75,20.00 876.34,1032.08,20.00"/>
  </edge>
  <edge id=":10_1" function="internal">
    <lane id=":10_1_0" index="0" disallow="pedestrian tram rail_urban rail rail_electric rail_fast ship" speed="22.22" length="57.65" width="3.75" shape="843.13,984.95,20.00 876.34,1032.08,20.00"/>
    <lane id=":10_1_1" index="1" disallow="pedestrian tram rail_urban rail rail_electric rail_fast ship" speed="22.22" length="57.65" width="3.75" shape="840.06,987.11,20.00 873.27,1034.24,20.00"/>
    <lane id=":10_1_2" index="2" disallow="pedestrian tram rail_urban rail rail_electric rail_fast ship" speed="22.22" length="57.65" width="3.75" shape="837.00,989.28,20.00 870.21,1036.40,20.00"/>
  </edge>
  <edge id=":11_0" function="internal">
    <lane id=":11_0_0" index="0" disallow="pedestrian tram rail_urban rail rail_electric rail_fast ship" speed="9.72" length="2.99" width="3.75" shape="771.61,481.57,4.47 770.42,484.32,4.56"/>
  </edge>
  <edge id=":11_1" function="internal">
    <lane id=":11_1_0" index="0" disallow="pedestrian tram rail_urban rail rail_electric rail_fast ship" speed="13.19" length="3.00" width="3.75" shape="771.61,481.57,4.47 770.41,484.33,4.51"/>
  </edge>
  <edge id=":12_0" function="internal">
    <lane id=":12_0_0" index="0" disallow="pedestrian tram rail_urban rail rail_electric rail_fast ship" speed="9.72" length="24.51" width="3.75" shape="668.53,364.53,6.80 692.78,360.97,6.76"/>
  </edge>
  <edge id=":12_1" function="internal">
    <lane id=":12_1_0" index="0" disallow="pedestrian tram rail_urban rail rail_electric rail_fast ship" speed="10.42" length="24.17" width="3.75" shape="669.86,368.52,6.82 674.63,366.51,6.81 681.15,364.21,6.79 687.75,362.18,6.77 692.78,360.97,6.76"/>
  </edge>
  <edge id=":13_0" function="internal">
    <lane id=":13_0_0" index="0" disallow="pedestrian tram rail_urban rail rail_electric rail_fast ship" speed="9.72" length="48.97" width="3.75" shape="733.99,673.34,12.03 735.21,682.30,12.04 737.91,697.49,12.05 740.83,712.65,12.07 742.72,721.51,12.08"/>
  </edge>
  <edge id=":13_1" function="internal">
    <lane id=":13_1_0" index="0" disallow="pedestrian tram rail_urban rail rail_electric rail_fast ship" speed="13.19" length="48.38" width="3.75" shape="729.99,674.83,11.98 742.72,721.51,12.08"/>
  </edge>
  <edge id=":14_0" function="internal">
    <lane id=":14_0_0" index="0" disallow="pedestrian tram rail_urban rail rail_electric rail_fast ship" speed="16.67" length="3.00" width="3.75" shape="472.88,785.88,7.10 470.08,784.82,7.01"/>
  </edge>
  <edge id=":14_1" function="internal">
    <lane id=":14_1_0" index="0" disallow="pedestrian tram rail_urban rail rail_electric rail_fast ship" speed="19.44" length="3.00" width="3.75" shape="472.89,785.88,7.06 470.08,784.82,7.01"/>
  </edge>
  <edge id=":14.13_0" function="internal">
    <lane id=":14.13_0_0" index="0" disallow="pedestrian tram rail_urban rail rail_electric rail_fast ship" speed="22.22" length="0.30" width="3.75" shape="508.59,564.90,20.00 508.41,564.67,20.00"/>
    <lane id=":14.13_0_1" index="1" disallow="pedestrian tram rail_urban rail rail_electric rail_fast ship" speed="22.22" length="0.30" width="3.75" shape="511.51,562.55,20.00 511.32,562.31,20.00"/>
    <lane id=":14.13_0_2" index="2" disallow="pedestrian tram rail_urban rail rail_electric rail_fast ship" speed="22.22" length="0.30" width="3.75" shape="514.43,560.19,20.00 514.24,559.96,20.00"/>
  </edge>
  <edge id=":15_0" function="internal">
    <lane id=":15_0_0" index="0" disallow="pedestrian tram rail_urban rail rail_electric rail_fast ship" speed="22.22" length="54.90" width="3.75" shape="217.30,392.73,13.66 217.03,382.75,13.67 216.38,365.29,13.69 215.63,347.84,13.70 215.06,337.88,13.71"/>
  </edge>
  <edge id=":15_1" function="internal">
    <lane id=":15_1_0" index="0" disallow="pedestrian tram rail_urban rail rail_electric rail_fast ship" speed="19.44" length="54.58" width="3.75" shape="221.23,392.11,13.59 215.06,337.88,13.71"/>
  </edge>
  <edge id=":18.17_0" function="internal">
    <lane id=":18.17_0_0" index="0" disallow="pedestrian tram rail_urban rail rail_electric rail_fast ship" speed="16.67" length="0.30" width="3.75" shape="477.77,787.75,7.25 477.49,787.65,7.24"/>
  </edge>
  <edge id=":2_0" function="internal">
    <lane id=":2_0_0" index="0" disallow="pedestrian tram rail_urban rail rail_electric rail_fast ship" speed="15.97" length="42.57" width="3.75" shape="137.46,126.99,20.00 146.35,135.43,20.00 156.07,143.69,20.00 164.60,150.47,20.00 169.89,154.52,20.00"/>
  </edge>
  <edge id=":2_1" function="internal">
    <lane id=":2_1_0" index="0" disallow="pedestrian tram rail_urban rail rail_electric rail_fast ship" speed="22.22" length="42.67" width="3.75" shape="137.46,126.99,20.00 166.99,157.80,20.00"/>
    <lane id=":2_1_1" index="1" disallow="pedestrian tram rail_urban rail rail_electric rail_fast ship" speed="22.22" length="42.67" width="3.75" shape="134.76,129.58,20.00 164.28,160.39,20.00"/>
    <lane id=":2_1_2" index="2" disallow="pedestrian tram rail_urban rail rail_electric rail_fast ship" speed="22.22" length="42.67" width="3.75" shape="132.05,132.18,20.00 161.57,162.99,20.00"/>
  </edge>
  <edge id=":2.1_0" function="internal">
    <lane id=":2.1_0_0" index="0" disallow="pedestrian tram rail_urban rail rail_electric rail_fast ship" speed="22.22" length="0.30" width="3.75" shape="474.01,603.09 473.77,603.27"/>
    <lane id=":2.1_0_1" index="1" disallow="pedestrian tram rail_urban rail rail_electric rail_fast ship" speed="22.22" length="0.30" width="3.75" shape="471.80,600.06 471.56,600.24"/>
    <lane id=":2.1_0_2" index="2" disallow="pedestrian tram rail_urban rail rail_electric rail_fast ship" speed="22.22" length="0.30" width="3.75" shape="469.60,597.03 469.35,597.21"/>
  </edge>
  <edge id=":22.21_0" function="internal">
    <lane id=":22.21_0_0" index="0" disallow="pedestrian tram rail_urban rail rail_electric rail_fast ship" speed="22.22" length="0.30" width="3.75" shape="220.46,518.68,8.64 220.43,518.38,8.64"/>
  </edge>
  <edge id=":26.25_0" function="internal">
    <lane id=":26.25_0_0" index="0" disallow="pedestrian tram rail_urban rail rail_electric rail_fast ship" speed="9.72" length="0.29" width="3.75" shape="540.13,366.07,10.28 540.42,366.11,10.27"/>
  </edge>
  <edge id=":3_0" function="internal">
    <lane id=":3_0_0" index="0" disallow="pedestrian tram rail_urban rail rail_electric rail_fast ship" speed="19.44" length="97.09" width="3.75" shape="977.80,1216.26,20.00 918.78,1139.16,20.00"/>
  </edge>
  <edge id=":3_1" function="internal">
    <lane id=":3_1_0" index="0" disallow="pedestrian tram rail_urban rail rail_electric rail_fast ship" speed="22.22" length="97.18" width="3.75" shape="977.80,1216.26,20.00 922.03,1136.68,20.00"/>
    <lane id=":3_1_1" index="1" disallow="pedestrian tram rail_urban rail rail_electric rail_fast ship" speed="22.22" length="97.18" width="3.75" shape="980.87,1214.11,20.00 925.10,1134.53,20.00"/>
    <lane id=":3_1_2" index="2" disallow="pedestrian tram rail_urban rail rail_electric rail_fast ship" speed="22.22" length="97.18" width="3.75" shape="983.94,1211.96,20.00 928.17,1132.38,20.00"/>
  </edge>
  <edge id=":30.29_0" function="internal">
    <lane id=":30.29_0_0" index="0" disallow="pedestrian tram rail_urban rail rail_electric rail_fast ship" speed="9.72" length="0.29" width="3.75" shape="734.03,669.83,10.08 734.02,670.12,10.09"/>
  </edge>
  <edge id=":33.32_0" function="internal">
    <lane id=":33.32_0_0" index="0" disallow="pedestrian tram rail_urban rail rail_electric rail_fast ship" speed="11.11" length="0.29" width="3.75" shape="528.49,602.66,9.53 528.52,602.37,9.53"/>
  </edge>
  <edge id=":35.34_0" function="internal">
    <lane id=":35.34_0_0" index="0" disallow="pedestrian tram rail_urban rail rail_electric rail_fast ship" speed="16.67" length="0.30" width="3.75" shape="487.67,340.78,9.04 487.96,340.84,9.04"/>
  </edge>
  <edge id=":37.36_0" function="internal">
    <lane id=":37.36_0_0" index="0" disallow="pedestrian tram rail_urban rail rail_electric rail_fast ship" speed="22.22" length="0.30" width="3.75" shape="634.00,717.81,9.54 634.08,718.09,9.53"/>
  </edge>
  <edge id=":39.38_0" function="internal">
    <lane id=":39.38_0_0" index="0" disallow="pedestrian tram rail_urban rail rail_electric rail_fast ship" speed="16.67" length="0.30" width="3.75" shape="423.40,763.91,9.02 423.11,763.84,9.03"/>
  </edge>
  <edge id=":4_0" function="internal">
    <lane id=":4_0_0" index="0" disallow="pedestrian tram rail_urban rail rail_electric rail_fast ship" speed="19.44" length="89.88" width="3.75" shape="208.59,832.03,0.00 197.66,840.85,0.00 176.73,858.14,0.00 154.48,876.78,0.00 139.63,889.66"/>
  </edge>
  <edge id=":4_1" function="internal">
    <lane id=":4_1_0" index="0" disallow="pedestrian tram rail_urban rail rail_electric rail_fast ship" speed="22.22" length="89.63" width="3.75" shape="205.62,829.06 139.63,889.66"/>
    <lane id=":4_1_1" index="1" disallow="pedestrian tram rail_urban rail rail_electric rail_fast ship" speed="22.22" length="89.63" width="3.75" shape="203.10,826.29 137.08,886.91"/>
    <lane id=":4_1_2" index="2" disallow="pedestrian tram rail_urban rail rail_electric rail_fast ship" speed="22.22" length="89.63" width="3.75" shape="200.57,823.52 134.53,884.16"/>
  </edge>
  <edge id=":5_0" function="internal">
    <lane id=":5_0_0" index="0" disallow="pedestrian tram rail_urban rail rail_electric rail_fast ship" speed="16.67" length="33.03" width="3.75" shape="636.53,882.02,12.32 609.38,863.21,12.28"/>
  </edge>
  <edge id=":5_1" function="internal">
    <lane id=":5_1_0" index="0" disallow="pedestrian tram rail_urban rail rail_electric rail_fast ship" speed="13.89" length="33.67" width="3.75" shape="636.53,882.02,12.32 631.37,877.81,12.30 623.73,871.09,12.28 616.24,864.21,12.25 611.51,859.52,12.24"/>
  </edge>
  <edge id=":6_0" function="internal">
    <lane id=":6_0_0" index="0" disallow="pedestrian tram rail_urban rail rail_electric rail_fast ship" speed="22.22" length="93.44" width="3.75" shape="140.52,169.08,20.00 131.06,157.96,20.00 112.46,136.53,20.00 92.49,113.82,20.00 78.92,98.83,20.00"/>
  </edge>
  <edge id=":6_1" function="internal">
    <lane id=":6_1_0" index="0" disallow="pedestrian tram rail_urban rail rail_electric rail_fast ship" speed="22.22" length="93.17" width="3.75" shape="143.42,166.06,20.00 78.92,98.83,20.00"/>
    <lane id=":6_1_1" index="1" disallow="pedestrian tram rail_urban rail rail_electric rail_fast ship" speed="22.22" length="93.17" width="3.75" shape="146.13,163.46,20.00 81.62,96.23,20.00"/>
    <lane id=":6_1_2" index="2" disallow="pedestrian tram rail_urban rail rail_electric rail_fast ship" speed="22.22" length="93.17" width="3.75" shape="148.84,160.87,20.00 84.32,93.64,20.00"/>
  </edge>
  <edge id=":6.5_0" function="internal">
    <lane id=":6.5_0_0" index="0" disallow="pedestrian tram rail_urban rail rail_electric rail_fast ship" speed="22.22" length="0.30" width="3.75" shape="460.38,584.87 460.63,584.69"/>
    <lane id=":6.5_0_1" index="1" disallow="pedestrian tram rail_urban rail rail_electric rail_fast ship" speed="22.22" length="0.30" width="3.75" shape="462.59,587.90 462.83,587.73"/>
    <lane id=":6.5_0_2" index="2" disallow="pedestrian tram rail_urban rail rail_electric rail_fast ship" speed="22.22" length="0.30" width="3.75" shape="464.80,590.94 465.04,590.76"/>
  </edge>
  <edge id=":7_0" function="internal">
    <lane id=":7_0_0" index="0" disallow="pedestrian tram rail_urban rail rail_electric rail_fast ship" speed="22.22" length="2.99" width="3.75" shape="231.36,618.38,6.25 231.10,615.40,6.33"/>
  </edge>
  <edge id=":7_1" function="internal">
    <lane id=":7_1_0" index="0" disallow="pedestrian tram rail_urban rail rail_electric rail_fast ship" speed="19.44" length="3.00" width="3.75" shape="231.36,618.38,6.25 231.10,615.39,6.29"/>
  </edge>
  <edge id=":8_0" function="internal">
    <lane id=":8_0_0" index="0" disallow="pedestrian tram rail_urban rail rail_electric rail_fast ship" speed="15.97" length="92.41" width="3.75" shape="931.87,284.31,0.00 944.70,277.68,0.00 969.49,264.62,0.00 995.85,250.53,0.00 1013.40,240.81"/>
  </edge>
  <edge id=":8_1" function="internal">
    <lane id=":8_1_0" index="0" disallow="pedestrian tram rail_urban rail rail_electric rail_fast ship" speed="22.22" length="92.16" width="3.75" shape="934.11,287.79 1013.40,240.81"/>
    <lane id=":8_1_1" index="1" disallow="pedestrian tram rail_urban rail rail_electric rail_fast ship" speed="22.22" length="92.16" width="3.75" shape="936.02,291.01 1015.31,244.03"/>
    <lane id=":8_1_2" index="2" disallow="pedestrian tram rail_urban rail rail_electric rail_fast ship" speed="22.22" length="92.16" width="3.75" shape="937.94,294.24 1017.22,247.26"/>
  </edge>
  <edge id=":9_0" function="internal">
    <lane id=":9_0_0" index="0" disallow="pedestrian tram rail_urban rail rail_electric rail_fast ship" speed="9.72" length="3.00" width="3.75" shape="318.73,253.48,15.38 321.28,255.05,15.30"/>
  </edge>
  <edge id=":9_1" function="internal">
    <lane id=":9_1_0" index="0" disallow="pedestrian tram rail_urban rail rail_electric rail_fast ship" speed="15.97" length="3.01" width="3.75" shape="318.73,253.48,15.38 321.29,255.06,15.34"/>
  </edge>
  <edge id=":9.10_0" function="internal">
    <lane id=":9.10_0_0" index="0" disallow="pedestrian tram rail_urban rail rail_electric rail_fast ship" speed="22.22" length="0.30" width="3.75" shape="526.10,550.37,20.00 526.29,550.61,20.00"/>
    <lane id=":9.10_0_1" index="1" disallow="pedestrian tram rail_urban rail rail_electric rail_fast ship" speed="22.22" length="0.30" width="3.75" shape="523.19,552.73,20.00 523.37,552.96,20.00"/>
    <lane id=":9.10_0_2" index="2" disallow="pedestrian tram rail_urban rail rail_electric rail_fast ship" speed="22.22" length="0.30" width="3.75" shape="520.27,555.09,20.00 520.46,555.32,20.00"/>
  </edge>
  <edge id="-0" from="0.begin" to="0" priority="1" type="driving" shape="1102.73,202.87 1101.90,203.39 1101.04,203.92 1100.16,204.46 1099.27,205.01 1098.36,205.57 1097.43,206.14 1096.48,206.72 1095.51,207.31 1094.53,207.91 1093.52,208.52 1092.50,209.14 1091.46,209.78 1090.40,210.42 1089.33,211.07 1088.23,211.73 1087.12,212.40 1086.00,213.08 1084.85,213.78 1083.69,214.48 1082.51,215.19 1081.31,215.91 1080.10,216.64 1078.87,217.38 1077.62,218.13 1076.36,218.88 1075.08,219.65 1073.79,220.43 1072.47,221.21 1071.15,222.01 1069.80,222.81 1068.44,223.62 1067.07,224.45 1065.68,225.28 1064.27,226.12 1062.85,226.97 1061.41,227.82 1059.96,228.69 1058.49,229.56 1057.01,230.45 1055.51,231.34 1054.00,232.24 1052.47,233.15 1050.93,234.07 1049.37,234.99 1047.80,235.92 1046.22,236.87 1044.62,237.82 1043.01,238.77 1041.38,239.74 1039.74,240.71 1038.09,241.70 1036.42,242.69 1034.74,243.68 1033.05,244.69 1031.34,245.70 1029.62,246.72 1027.88,247.75 1026.14,248.79 1024.38,249.83 1022.60,250.88 1020.82,251.94 1019.02,253.00 1017.21,254.07 1015.39,255.15 1013.56,256.24 1011.71,257.33 1009.85,258.44 1007.98,259.54 1006.10,260.66 1004.21,261.78 1002.30,262.91 1000.38,264.04 998.46,265.18 996.52,266.33 994.57,267.49 992.61,268.65 990.63,269.82 988.65,270.99 986.66,272.17 984.65,273.36 982.64,274.55 980.62,275.75 978.58,276.95 976.54,278.17 974.48,279.38 972.42,280.61 970.34,281.84 968.26,283.07 966.16,284.31 964.06,285.56 961.95,286.81 959.82,288.07 957.69,289.33 955.55,290.60 953.40,291.87 951.25,293.15 949.08,294.44 946.90,295.73 944.72,297.02 942.53,298.32 940.33,299.63 938.12,300.94 935.90,302.26 933.68,303.58 931.44,304.90 929.20,306.23 926.96,307.57 924.70,308.91 922.44,310.25 920.17,311.60 917.89,312.95 915.61,314.31 913.31,315.67 911.02,317.04 908.71,318.41 906.40,319.79 904.08,321.17 901.76,322.55 899.42,323.94 897.09,325.33">
    <lane id="-0_0" index="0" disallow="pedestrian tram rail_urban rail rail_electric rail_fast ship" speed="22.22" length="235.43" width="3.75" shape="1107.66,210.85 1106.82,211.37 1105.96,211.90 1105.08,212.44 1104.18,213.00 1103.26,213.56 1102.32,214.13 1101.37,214.72 1100.40,215.31 1099.40,215.92 1098.40,216.53 1097.37,217.16 1096.33,217.79 1095.26,218.43 1094.18,219.09 1093.09,219.75 1091.97,220.43 1090.84,221.11 1089.69,221.80 1088.53,222.51 1087.35,223.22 1086.15,223.94 1084.93,224.67 1083.70,225.41 1082.45,226.16 1081.18,226.92 1079.90,227.69 1078.60,228.47 1077.29,229.26 1075.96,230.05 1074.62,230.86 1073.25,231.67 1071.88,232.49 1070.48,233.33 1069.08,234.17 1067.65,235.02 1066.21,235.88 1064.76,236.74 1063.29,237.62 1061.81,238.50 1060.31,239.39 1058.79,240.30 1057.27,241.20 1055.72,242.12 1054.17,243.05 1052.60,243.98 1051.01,244.93 1049.41,245.88 1047.80,246.83 1046.17,247.80 1044.53,248.77 1042.87,249.76 1041.21,250.75 1039.52,251.75 1037.83,252.75 1036.12,253.76 1034.40,254.79 1032.66,255.81 1030.92,256.85 1029.16,257.89 1027.38,258.94 1025.60,260.00 1023.80,261.07 1021.99,262.14 1020.17,263.22 1018.33,264.31 1016.49,265.40 1014.63,266.50 1012.76,267.61 1010.88,268.72 1008.98,269.85 1007.08,270.97 1005.16,272.11 1003.23,273.25 1001.29,274.40 999.34,275.55 997.38,276.71 995.41,277.88 993.43,279.06 991.44,280.24 989.43,281.42 987.42,282.62 985.39,283.82 983.36,285.02 981.31,286.23 979.26,287.45 977.19,288.67 975.12,289.90 973.04,291.14 970.94,292.38 968.84,293.62 966.73,294.87 964.60,296.13 962.47,297.40 960.33,298.66 958.18,299.94 956.03,301.22 953.86,302.50 951.69,303.79 949.50,305.09 947.31,306.39 945.11,307.69 942.90,309.00 940.69,310.32 938.46,311.64 936.23,312.96 933.99,314.29 931.74,315.63 929.49,316.97 927.23,318.31 924.96,319.66 922.68,321.01 920.40,322.37 918.11,323.73 915.81,325.10 913.50,326.47 911.19,327.84 908.88,329.22 906.55,330.61 905.33,331.33" type="driving"/>
    <lane id="-0_1" index="1" disallow="pedestrian tram rail_urban rail rail_electric rail_fast ship" speed="22.22" length="235.43" width="3.75" shape="1105.69,207.66 1104.85,208.18 1103.99,208.71 1103.11,209.25 1102.22,209.80 1101.30,210.36 1100.37,210.94 1099.41,211.52 1098.44,212.11 1097.45,212.71 1096.45,213.33 1095.42,213.95 1094.38,214.58 1093.32,215.23 1092.24,215.88 1091.15,216.54 1090.03,217.22 1088.90,217.90 1087.76,218.59 1086.59,219.29 1085.41,220.01 1084.21,220.73 1083.00,221.46 1081.77,222.20 1080.52,222.95 1079.25,223.71 1077.97,224.47 1076.68,225.25 1075.36,226.04 1074.04,226.83 1072.69,227.64 1071.33,228.45 1069.95,229.28 1068.56,230.11 1067.15,230.95 1065.73,231.80 1064.29,232.65 1062.84,233.52 1061.37,234.40 1059.89,235.28 1058.39,236.17 1056.88,237.07 1055.35,237.98 1053.81,238.90 1052.25,239.83 1050.68,240.76 1049.09,241.70 1047.49,242.65 1045.88,243.61 1044.25,244.58 1042.61,245.55 1040.96,246.53 1039.29,247.52 1037.61,248.52 1035.92,249.53 1034.21,250.54 1032.49,251.56 1030.75,252.59 1029.01,253.62 1027.25,254.67 1025.47,255.72 1023.69,256.78 1021.89,257.84 1020.08,258.91 1018.26,259.99 1016.42,261.08 1014.58,262.17 1012.72,263.27 1010.85,264.38 1008.97,265.50 1007.07,266.62 1005.17,267.75 1003.25,268.88 1001.32,270.02 999.38,271.17 997.43,272.33 995.47,273.49 993.50,274.66 991.52,275.83 989.52,277.01 987.52,278.20 985.51,279.39 983.48,280.59 981.45,281.79 979.40,283.01 977.35,284.22 975.28,285.45 973.21,286.68 971.12,287.91 969.03,289.15 966.93,290.40 964.81,291.65 962.69,292.91 960.56,294.17 958.42,295.44 956.27,296.71 954.11,297.99 951.95,299.28 949.77,300.57 947.59,301.86 945.40,303.16 943.20,304.47 940.99,305.78 938.77,307.09 936.55,308.41 934.32,309.74 932.08,311.07 929.83,312.40 927.57,313.74 925.31,315.09 923.04,316.44 920.76,317.79 918.48,319.15 916.19,320.51 913.89,321.88 911.59,323.25 909.28,324.62 906.96,326.00 904.63,327.38 903.41,328.11" type="driving"/>
    <lane id="-0_2" index="2" disallow="pedestrian tram rail_urban rail rail_electric rail_fast ship" speed="22.22" length="235.43" width="3.75" shape="1103.72,204.47 1102.88,204.99 1102.02,205.52 1101.15,206.06 1100.25,206.61 1099.34,207.17 1098.41,207.74 1097.46,208.32 1096.49,208.91 1095.50,209.51 1094.50,210.12 1093.47,210.75 1092.43,211.38 1091.37,212.02 1090.30,212.67 1089.20,213.34 1088.09,214.01 1086.96,214.69 1085.82,215.38 1084.66,216.08 1083.48,216.79 1082.28,217.51 1081.07,218.24 1079.84,218.98 1078.59,219.73 1077.33,220.49 1076.05,221.26 1074.75,222.04 1073.44,222.82 1072.11,223.62 1070.77,224.42 1069.41,225.23 1068.03,226.06 1066.64,226.89 1065.23,227.73 1063.81,228.58 1062.37,229.43 1060.92,230.30 1059.45,231.17 1057.97,232.06 1056.47,232.95 1054.96,233.85 1053.43,234.76 1051.89,235.68 1050.33,236.60 1048.76,237.54 1047.18,238.48 1045.58,239.43 1043.97,240.39 1042.34,241.35 1040.70,242.33 1039.05,243.31 1037.38,244.30 1035.70,245.30 1034.00,246.30 1032.29,247.31 1030.57,248.33 1028.84,249.36 1027.09,250.40 1025.33,251.44 1023.56,252.49 1021.78,253.55 1019.98,254.62 1018.17,255.69 1016.35,256.77 1014.51,257.85 1012.67,258.95 1010.81,260.05 1008.94,261.16 1007.06,262.27 1005.16,263.39 1003.26,264.52 1001.34,265.66 999.41,266.80 997.47,267.95 995.52,269.10 993.56,270.26 991.59,271.43 989.61,272.60 987.61,273.78 985.61,274.97 983.60,276.16 981.57,277.36 979.54,278.57 977.49,279.78 975.44,281.00 973.37,282.22 971.30,283.45 969.21,284.68 967.12,285.92 965.01,287.17 962.90,288.42 960.78,289.68 958.65,290.94 956.51,292.21 954.36,293.49 952.20,294.77 950.04,296.05 947.86,297.34 945.68,298.64 943.48,299.94 941.28,301.24 939.07,302.55 936.86,303.87 934.63,305.19 932.40,306.51 930.16,307.84 927.91,309.18 925.66,310.52 923.40,311.86 921.13,313.21 918.85,314.57 916.56,315.92 914.27,317.29 911.97,318.65 909.67,320.02 907.36,321.40 905.04,322.78 902.71,324.16 901.49,324.89" type="driving"/>
  </edge>