<?xml version="1.0" encoding="UTF-8"?><!-- generated on 2022-09-02 02:43:12 by Eclipse SUMO netconvert Version 1.13.0
<configuration xmlns:xsi="http://www.w3.org/2001/XMLSchema-instance" xsi:noNamespaceSchemaLocation="http://sumo.dlr.de/xsd/netconvertConfiguration.xsd">

    <input>
        <opendrive-files value="map\classification\3\57223565\57223565.xodr"/>
    </input>

    <output>
        <output-file value="C:\Users\LinGe\AppData\Local\Temp\tmpt2ymkd5v\57223565.net.xml"/>
    </output>

    <processing>
        <geometry.max-grade.fix value="false"/>
    </processing>

    <tls_building>
        <tls.left-green.time value="0"/>
    </tls_building>

    <junctions>
        <rectangular-lane-cut value="true"/>
    </junctions>

    <report>
        <aggregate-warnings value="5"/>
    </report>

</configuration>
--><net junctionCornerDetail="5" limitTurnSpeed="5.50" rectangularLaneCut="true" version="1.9" xmlns:xsi="http://www.w3.org/2001/XMLSchema-instance" xsi:noNamespaceSchemaLocation="http://sumo.dlr.de/xsd/net_file.xsd">
  <location convBoundary="0.00,0.00,1295.03,803.33" netOffset="38.05,101.66" origBoundary="-38.05,-101.66,1256.98,701.66" projParameter="!"/>
  <type disallow="pedestrian tram rail_urban rail rail_electric rail_fast ship" id="bidirectional" priority="1" speed="1.39" width="3.65"/>
  <type disallow="all" discard="1" id="border" priority="0" speed="1.39" width="0.10"/>
  <type disallow="pedestrian tram rail_urban rail rail_electric rail_fast ship" id="driving" priority="1" speed="13.89" width="3.65"/>
  <type disallow="pedestrian tram rail_urban rail rail_electric rail_fast ship" id="entry" priority="1" speed="22.22" width="3.65"/>
  <type disallow="pedestrian tram rail_urban rail rail_electric rail_fast ship" id="exit" priority="1" speed="22.22" width="3.65"/>
  <type disallow="all" discard="1" id="median" priority="0" speed="1.39" width="0.10"/>
  <type allow="private emergency authority army vip passenger hov taxi bus coach delivery truck trailer motorcycle evehicle custom1 custom2" id="mwyEntry" priority="1" speed="22.22" width="3.65"/>
  <type allow="private emergency authority army vip passenger hov taxi bus coach delivery truck trailer motorcycle evehicle custom1 custom2" id="mwyExit" priority="1" speed="22.22" width="3.65"/>
  <type disallow="all" discard="1" id="none" priority="0" speed="1.39" width="1.00"/>
  <type allow="private emergency authority army vip passenger hov taxi bus coach delivery truck trailer motorcycle evehicle custom1 custom2" id="offRamp" priority="1" speed="22.22" width="3.65"/>
  <type allow="private emergency authority army vip passenger hov taxi bus coach delivery truck trailer motorcycle evehicle custom1 custom2" id="onRamp" priority="1" speed="22.22" width="3.65"/>
  <type disallow="pedestrian tram rail_urban rail rail_electric rail_fast ship" id="parking" priority="1" speed="1.39" width="2.50"/>
  <type allow="rail_urban rail rail_electric rail_fast" id="rail" priority="3" speed="33.33" width="3.65"/>
  <type disallow="all" id="restricted" priority="0" speed="13.89" width="3.65"/>
  <type allow="authority" id="roadWorks" priority="0" speed="1.39" width="3.65"/>
  <type disallow="all" discard="1" id="shoulder" priority="0" speed="1.39" width="1.00"/>
  <type allow="custom1" discard="1" id="special1" priority="1" speed="22.22" width="3.65"/>
  <type allow="custom2" discard="1" id="special2" priority="1" speed="22.22" width="3.65"/>
  <type allow="custom1 custom2" discard="1" id="special3" priority="1" speed="22.22" width="3.65"/>
  <type disallow="pedestrian tram rail_urban rail rail_electric rail_fast ship" id="stop" priority="1" speed="13.89" width="3.65"/>
  <type allow="tram" id="tram" priority="2" speed="13.89" width="3.65"/>
  <edge function="internal" id=":0_0">
    <lane disallow="pedestrian tram rail_urban rail rail_electric rail_fast ship" id=":0_0_0" index="0" length="69.56" shape="1146.96,258.36 1132.44,266.19 1113.30,277.11 1095.90,287.31 1086.62,292.97" speed="19.44" width="3.75"/>
  </edge>
  <edge function="internal" id=":0_1">
    <lane disallow="pedestrian tram rail_urban rail rail_electric rail_fast ship" id=":0_1_0" index="0" length="69.74" shape="1146.96,258.36 1084.42,289.28" speed="22.22" width="3.75"/>
    <lane disallow="pedestrian tram rail_urban rail rail_electric rail_fast ship" id=":0_1_1" index="1" length="69.74" shape="1145.29,255.00 1082.77,285.91" speed="22.22" width="3.75"/>
    <lane disallow="pedestrian tram rail_urban rail rail_electric rail_fast ship" id=":0_1_2" index="2" length="69.74" shape="1143.62,251.64 1081.12,282.55" speed="22.22" width="3.75"/>
  </edge>
  <edge function="internal" id=":1_0">
    <lane disallow="pedestrian tram rail_urban rail rail_electric rail_fast ship" id=":1_0_0" index="0" length="24.01" shape="571.16,485.08 563.52,487.55 557.61,490.32 553.26,493.25 550.24,496.17" speed="16.67" width="3.75"/>
  </edge>
  <edge function="internal" id=":1_1">
    <lane disallow="pedestrian tram rail_urban rail rail_electric rail_fast ship" id=":1_1_0" index="0" length="24.70" shape="571.16,485.08 547.25,491.33" speed="22.22" width="3.75"/>
    <lane disallow="pedestrian tram rail_urban rail rail_electric rail_fast ship" id=":1_1_1" index="1" length="24.70" shape="570.21,481.45 546.31,487.70" speed="22.22" width="3.75"/>
    <lane disallow="pedestrian tram rail_urban rail rail_electric rail_fast ship" id=":1_1_2" index="2" length="24.70" shape="569.25,477.83 545.37,484.07" speed="22.22" width="3.75"/>
  </edge>
  <edge function="internal" id=":10_0">
    <lane disallow="pedestrian tram rail_urban rail rail_electric rail_fast ship" id=":10_0_0" index="0" length="72.88" shape="255.55,210.41,20.00 247.52,202.34,20.00 232.29,187.44,20.00 215.57,171.39,20.00 203.06,159.87,20.00" speed="15.97" width="3.75"/>
  </edge>
  <edge function="internal" id=":10_1">
    <lane disallow="pedestrian tram rail_urban rail rail_electric rail_fast ship" id=":10_1_0" index="0" length="72.53" shape="258.18,207.06,20.00 203.06,159.87,20.00" speed="22.22" width="3.75"/>
    <lane disallow="pedestrian tram rail_urban rail rail_electric rail_fast ship" id=":10_1_1" index="1" length="72.53" shape="260.61,204.20,20.00 205.51,157.03,20.00" speed="22.22" width="3.75"/>
    <lane disallow="pedestrian tram rail_urban rail rail_electric rail_fast ship" id=":10_1_2" index="2" length="72.53" shape="263.03,201.34,20.00 207.96,154.19,20.00" speed="22.22" width="3.75"/>
  </edge>
  <edge function="internal" id=":11_0">
    <lane disallow="pedestrian tram rail_urban rail rail_electric rail_fast ship" id=":11_0_0" index="0" length="54.05" shape="992.19,303.70 1000.18,300.97 1014.14,295.93 1029.73,289.95 1042.64,284.38" speed="15.97" width="3.75"/>
  </edge>
  <edge function="internal" id=":11_1">
    <lane disallow="pedestrian tram rail_urban rail rail_electric rail_fast ship" id=":11_1_0" index="0" length="53.68" shape="994.24,307.51 1042.64,284.38" speed="22.22" width="3.75"/>
    <lane disallow="pedestrian tram rail_urban rail rail_electric rail_fast ship" id=":11_1_1" index="1" length="53.68" shape="995.84,310.90 1044.28,287.76" speed="22.22" width="3.75"/>
    <lane disallow="pedestrian tram rail_urban rail rail_electric rail_fast ship" id=":11_1_2" index="2" length="53.68" shape="997.44,314.29 1045.91,291.13" speed="22.22" width="3.75"/>
  </edge>
  <edge function="internal" id=":12_0">
    <lane disallow="pedestrian tram rail_urban rail rail_electric rail_fast ship" id=":12_0_0" index="0" length="26.24" shape="687.95,516.94,20.00 685.90,513.02,20.00 682.36,508.44,20.00 677.08,503.52,20.00 669.79,498.57,20.00" speed="16.67" width="3.75"/>
  </edge>
  <edge function="internal" id=":12_1">
    <lane disallow="pedestrian tram rail_urban rail rail_electric rail_fast ship" id=":12_1_0" index="0" length="24.68" shape="691.16,510.93,20.00 669.79,498.57,20.00" speed="22.22" width="3.75"/>
    <lane disallow="pedestrian tram rail_urban rail rail_electric rail_fast ship" id=":12_1_1" index="1" length="24.68" shape="693.04,507.68,20.00 671.68,495.32,20.00" speed="22.22" width="3.75"/>
    <lane disallow="pedestrian tram rail_urban rail rail_electric rail_fast ship" id=":12_1_2" index="2" length="24.68" shape="694.91,504.43,20.00 673.56,492.08,20.00" speed="22.22" width="3.75"/>
  </edge>
  <edge function="internal" id=":13_0">
    <lane disallow="pedestrian tram rail_urban rail rail_electric rail_fast ship" id=":13_0_0" index="0" length="8.00" shape="564.52,463.31 572.25,461.27" speed="22.22" width="3.75"/>
    <lane disallow="pedestrian tram rail_urban rail rail_electric rail_fast ship" id=":13_0_1" index="1" length="8.00" shape="565.48,466.94 573.21,464.89" speed="22.22" width="3.75"/>
    <lane disallow="pedestrian tram rail_urban rail rail_electric rail_fast ship" id=":13_0_2" index="2" length="8.00" shape="566.43,470.56 574.17,468.52" speed="22.22" width="3.75"/>
  </edge>
  <edge function="internal" id=":13_3">
    <lane disallow="pedestrian tram rail_urban rail rail_electric rail_fast ship" id=":13_3_0" index="0" length="8.00" shape="564.52,463.31,0.00 572.25,461.27" speed="18.06" width="3.75"/>
  </edge>
  <edge function="internal" id=":14_0">
    <lane disallow="pedestrian tram rail_urban rail rail_electric rail_fast ship" id=":14_0_0" index="0" length="52.64" shape="454.62,329.42,19.88 460.52,335.15,19.89 471.18,344.77,19.93 483.52,355.29,19.97 494.49,363.73,20.00" speed="20.83" width="3.75"/>
  </edge>
  <edge function="internal" id=":14_1">
    <lane disallow="pedestrian tram rail_urban rail rail_electric rail_fast ship" id=":14_1_0" index="0" length="52.19" shape="452.17,333.38,20.00 494.49,363.73,20.00" speed="22.22" width="3.75"/>
    <lane disallow="pedestrian tram rail_urban rail rail_electric rail_fast ship" id=":14_1_1" index="1" length="52.19" shape="449.94,336.39,20.00 492.35,366.81,20.00" speed="22.22" width="3.75"/>
    <lane disallow="pedestrian tram rail_urban rail rail_electric rail_fast ship" id=":14_1_2" index="2" length="52.19" shape="447.71,339.41,20.00 490.22,369.90,20.00" speed="22.22" width="3.75"/>
  </edge>
  <edge function="internal" id=":15_0">
    <lane disallow="pedestrian tram rail_urban rail rail_electric rail_fast ship" id=":15_0_0" index="0" length="81.86" shape="857.57,397.41,0.18 779.77,422.86" speed="18.06" width="3.75"/>
  </edge>
  <edge function="internal" id=":15_1">
    <lane disallow="pedestrian tram rail_urban rail rail_electric rail_fast ship" id=":15_1_0" index="0" length="81.49" shape="855.97,393.54 779.77,422.86" speed="22.22" width="3.75"/>
    <lane disallow="pedestrian tram rail_urban rail rail_electric rail_fast ship" id=":15_1_1" index="1" length="81.49" shape="854.56,390.07 778.50,419.33" speed="22.22" width="3.75"/>
    <lane disallow="pedestrian tram rail_urban rail rail_electric rail_fast ship" id=":15_1_2" index="2" length="81.49" shape="853.14,386.60 777.23,415.81" speed="22.22" width="3.75"/>
  </edge>
  <edge function="internal" id=":15.14_0">
    <lane disallow="pedestrian tram rail_urban rail rail_electric rail_fast ship" id=":15.14_0_0" index="0" length="0.30" shape="514.13,377.09,20.00 514.37,377.26,20.00" speed="22.22" width="3.75"/>
    <lane disallow="pedestrian tram rail_urban rail rail_electric rail_fast ship" id=":15.14_0_1" index="1" length="0.30" shape="512.04,380.21,20.00 512.29,380.38,20.00" speed="22.22" width="3.75"/>
    <lane disallow="pedestrian tram rail_urban rail rail_electric rail_fast ship" id=":15.14_0_2" index="2" length="0.30" shape="509.96,383.33,20.00 510.21,383.50,20.00" speed="22.22" width="3.75"/>
  </edge>
  <edge function="internal" id=":2_0">
    <lane disallow="pedestrian tram rail_urban rail rail_electric rail_fast ship" id=":2_0_0" index="0" length="89.03" shape="154.91,562.45 173.80,557.48 201.46,549.73 227.27,542.30 240.59,538.31" speed="15.97" width="3.75"/>
  </edge>
  <edge function="internal" id=":2_1">
    <lane disallow="pedestrian tram rail_urban rail rail_electric rail_fast ship" id=":2_1_0" index="0" length="89.14" shape="154.91,562.45 241.73,542.30" speed="22.22" width="3.75"/>
    <lane disallow="pedestrian tram rail_urban rail rail_electric rail_fast ship" id=":2_1_1" index="1" length="89.14" shape="155.75,566.10 242.58,545.95" speed="22.22" width="3.75"/>
    <lane disallow="pedestrian tram rail_urban rail rail_electric rail_fast ship" id=":2_1_2" index="2" length="89.14" shape="156.60,569.75 243.43,549.61" speed="22.22" width="3.75"/>
  </edge>
  <edge function="internal" id=":21.20_0">
    <lane disallow="pedestrian tram rail_urban rail rail_electric rail_fast ship" id=":21.20_0_0" index="0" length="0.30" shape="501.75,396.19,20.00 501.50,396.02,20.00" speed="22.22" width="3.75"/>
    <lane disallow="pedestrian tram rail_urban rail rail_electric rail_fast ship" id=":21.20_0_1" index="1" length="0.30" shape="503.83,393.07,20.00 503.58,392.90,20.00" speed="22.22" width="3.75"/>
    <lane disallow="pedestrian tram rail_urban rail rail_electric rail_fast ship" id=":21.20_0_2" index="2" length="0.30" shape="505.91,389.94,20.00 505.67,389.78,20.00" speed="22.22" width="3.75"/>
  </edge>
  <edge function="internal" id=":25.24_0">
    <lane disallow="pedestrian tram rail_urban rail rail_electric rail_fast ship" id=":25.24_0_0" index="0" length="0.30" shape="968.59,494.50,10.32 968.57,494.80,10.34" speed="16.67" width="3.75"/>
  </edge>
  <edge function="internal" id=":27.26_0">
    <lane disallow="pedestrian tram rail_urban rail rail_electric rail_fast ship" id=":27.26_0_0" index="0" length="0.30" shape="616.15,571.01,9.31 615.85,570.96,9.30" speed="19.44" width="3.75"/>
  </edge>
  <edge function="internal" id=":29.28_0">
    <lane disallow="pedestrian tram rail_urban rail rail_electric rail_fast ship" id=":29.28_0_0" index="0" length="0.28" shape="375.58,437.76,8.81 375.62,437.48,8.83" speed="9.72" width="3.75"/>
  </edge>
  <edge function="internal" id=":3_0">
    <lane disallow="pedestrian tram rail_urban rail rail_electric rail_fast ship" id=":3_0_0" index="0" length="51.01" shape="772.05,401.46 784.60,396.27,0.03 798.76,389.57,0.07 811.05,383.30,0.10 818.01,379.41,0.12" speed="20.83" width="3.75"/>
  </edge>
  <edge function="internal" id=":3_1">
    <lane disallow="pedestrian tram rail_urban rail rail_electric rail_fast ship" id=":3_1_0" index="0" length="51.12" shape="772.05,401.46 819.80,383.52" speed="22.22" width="3.75"/>
    <lane disallow="pedestrian tram rail_urban rail rail_electric rail_fast ship" id=":3_1_1" index="1" length="51.12" shape="773.32,404.99 821.17,387.01" speed="22.22" width="3.75"/>
    <lane disallow="pedestrian tram rail_urban rail rail_electric rail_fast ship" id=":3_1_2" index="2" length="51.12" shape="774.58,408.52 822.54,390.50" speed="22.22" width="3.75"/>
  </edge>
  <edge function="internal" id=":3.2_0">
    <lane disallow="pedestrian tram rail_urban rail rail_electric rail_fast ship" id=":3.2_0_0" index="0" length="0.30" shape="747.67,433.99 747.38,434.08" speed="22.22" width="3.75"/>
    <lane disallow="pedestrian tram rail_urban rail rail_electric rail_fast ship" id=":3.2_0_1" index="1" length="0.30" shape="746.48,430.43 746.20,430.52" speed="22.22" width="3.75"/>
    <lane disallow="pedestrian tram rail_urban rail rail_electric rail_fast ship" id=":3.2_0_2" index="2" length="0.30" shape="745.29,426.87 745.01,426.97" speed="22.22" width="3.75"/>
  </edge>
  <edge function="internal" id=":31.30_0">
    <lane disallow="pedestrian tram rail_urban rail rail_electric rail_fast ship" id=":31.30_0_0" index="0" length="0.29" shape="681.29,361.33,8.67 681.58,361.38,8.66" speed="9.72" width="3.75"/>
  </edge>
  <edge function="internal" id=":33.32_0">
    <lane disallow="pedestrian tram rail_urban rail rail_electric rail_fast ship" id=":33.32_0_0" index="0" length="0.26" shape="607.85,584.08,9.98 608.10,584.12,10.02" speed="11.11" width="3.75"/>
  </edge>
  <edge function="internal" id=":35.34_0">
    <lane disallow="pedestrian tram rail_urban rail rail_electric rail_fast ship" id=":35.34_0_0" index="0" length="0.30" shape="39.39,493.49,8.92 39.59,493.71,8.91" speed="13.89" width="3.75"/>
  </edge>
  <edge function="internal" id=":37.36_0">
    <lane disallow="pedestrian tram rail_urban rail rail_electric rail_fast ship" id=":37.36_0_0" index="0" length="0.30" shape="679.82,33.63,9.98 679.53,33.59,9.99" speed="19.44" width="3.75"/>
  </edge>
  <edge function="internal" id=":39.38_0">
    <lane disallow="pedestrian tram rail_urban rail rail_electric rail_fast ship" id=":39.38_0_0" index="0" length="0.30" shape="1236.72,648.91,11.00 1236.95,648.73,10.99" speed="13.89" width="3.75"/>
  </edge>
  <edge function="internal" id=":4_0">
    <lane disallow="pedestrian tram rail_urban rail rail_electric rail_fast ship" id=":4_0_0" index="0" length="71.87" shape="243.49,164.69,20.00 256.68,175.16,20.00 274.91,188.91,20.00 291.79,201.34,20.00 300.91,207.88,20.00" speed="15.97" width="3.75"/>
  </edge>
  <edge function="internal" id=":4_1">
    <lane disallow="pedestrian tram rail_urban rail rail_electric rail_fast ship" id=":4_1_0" index="0" length="71.91" shape="243.49,164.69,20.00 298.32,211.15,20.00" speed="22.22" width="3.75"/>
    <lane disallow="pedestrian tram rail_urban rail rail_electric rail_fast ship" id=":4_1_1" index="1" length="71.91" shape="241.05,167.53,20.00 295.91,214.02,20.00" speed="22.22" width="3.75"/>
    <lane disallow="pedestrian tram rail_urban rail rail_electric rail_fast ship" id=":4_1_2" index="2" length="71.91" shape="238.61,170.38,20.00 293.51,216.90,20.00" speed="22.22" width="3.75"/>
  </edge>
  <edge function="internal" id=":5_0">
    <lane disallow="pedestrian tram rail_urban rail rail_electric rail_fast ship" id=":5_0_0" index="0" length="287.59" shape="684.10,480.57,20.00 936.51,618.39,20.00" speed="18.06" width="3.75"/>
  </edge>
  <edge function="internal" id=":5_1">
    <lane disallow="pedestrian tram rail_urban rail rail_electric rail_fast ship" id=":5_1_0" index="0" length="287.55" shape="684.10,480.57,20.00 934.50,621.79,20.00" speed="22.22" width="3.75"/>
    <lane disallow="pedestrian tram rail_urban rail rail_electric rail_fast ship" id=":5_1_1" index="1" length="287.55" shape="682.21,483.82,20.00 932.68,625.07,20.00" speed="22.22" width="3.75"/>
    <lane disallow="pedestrian tram rail_urban rail rail_electric rail_fast ship" id=":5_1_2" index="2" length="287.55" shape="680.33,487.06,20.00 930.87,628.35,20.00" speed="22.22" width="3.75"/>
  </edge>
  <edge function="internal" id=":6_0">
    <lane disallow="pedestrian tram rail_urban rail rail_electric rail_fast ship" id=":6_0_0" index="0" length="60.38" shape="1028.95,699.76,20.00 1015.49,693.02,20.00 998.35,685.10,20.00 982.82,678.18,20.00 974.14,674.46,20.00" speed="20.83" width="3.75"/>
  </edge>
  <edge function="internal" id=":6_1">
    <lane disallow="pedestrian tram rail_urban rail rail_electric rail_fast ship" id=":6_1_0" index="0" length="60.49" shape="1028.95,699.76,20.00 975.93,670.63,20.00" speed="22.22" width="3.75"/>
    <lane disallow="pedestrian tram rail_urban rail rail_electric rail_fast ship" id=":6_1_1" index="1" length="60.49" shape="1030.75,696.47,20.00 977.74,667.34,20.00" speed="22.22" width="3.75"/>
    <lane disallow="pedestrian tram rail_urban rail rail_electric rail_fast ship" id=":6_1_2" index="2" length="60.49" shape="1032.55,693.19,20.00 979.55,664.06,20.00" speed="22.22" width="3.75"/>
  </edge>
  <edge function="internal" id=":7_0">
    <lane disallow="pedestrian tram rail_urban rail rail_electric rail_fast ship" id=":7_0_0" index="0" length="77.50" shape="480.87,381.97,20.00 415.83,339.82,19.82" speed="18.06" width="3.75"/>
  </edge>
  <edge function="internal" id=":7_1">
    <lane disallow="pedestrian tram rail_urban rail rail_electric rail_fast ship" id=":7_1_0" index="0" length="77.82" shape="480.87,381.97,20.00 417.83,336.08,20.00" speed="22.22" width="3.75"/>
    <lane disallow="pedestrian tram rail_urban rail rail_electric rail_fast ship" id=":7_1_1" index="1" length="77.82" shape="483.01,378.89,20.00 420.09,333.09,20.00" speed="22.22" width="3.75"/>
    <lane disallow="pedestrian tram rail_urban rail rail_electric rail_fast ship" id=":7_1_2" index="2" length="77.82" shape="485.14,375.81,20.00 422.36,330.10,20.00" speed="22.22" width="3.75"/>
  </edge>
  <edge function="internal" id=":8_0">
    <lane disallow="pedestrian tram rail_urban rail rail_electric rail_fast ship" id=":8_0_0" index="0" length="73.54" shape="1055.57,683.49,20.00 1065.15,689.84,20.00 1083.29,701.43,20.00 1103.15,713.82,20.00 1117.87,722.54,20.00" speed="19.44" width="3.75"/>
  </edge>
  <edge function="internal" id=":8_1">
    <lane disallow="pedestrian tram rail_urban rail rail_electric rail_fast ship" id=":8_1_0" index="0" length="73.19" shape="1053.68,687.39,20.00 1117.87,722.54,20.00" speed="22.22" width="3.75"/>
    <lane disallow="pedestrian tram rail_urban rail rail_electric rail_fast ship" id=":8_1_1" index="1" length="73.19" shape="1051.87,690.68,20.00 1116.07,725.83,20.00" speed="22.22" width="3.75"/>
    <lane disallow="pedestrian tram rail_urban rail rail_electric rail_fast ship" id=":8_1_2" index="2" length="73.19" shape="1050.07,693.97,20.00 1114.27,729.12,20.00" speed="22.22" width="3.75"/>
  </edge>
  <edge function="internal" id=":9_0">
    <lane disallow="pedestrian tram rail_urban rail rail_electric rail_fast ship" id=":9_0_0" index="0" length="47.12" shape="286.46,559.74,0.18 279.12,560.41,0.15 266.74,561.78,0.10 252.55,563.72,0.05 239.80,566.10" speed="20.83" width="3.75"/>
  </edge>
  <edge function="internal" id=":9_1">
    <lane disallow="pedestrian tram rail_urban rail rail_electric rail_fast ship" id=":9_1_0" index="0" length="46.65" shape="285.23,555.47 239.80,566.10" speed="22.22" width="3.75"/>
    <lane disallow="pedestrian tram rail_urban rail rail_electric rail_fast ship" id=":9_1_1" index="1" length="46.65" shape="284.38,551.82 238.95,562.44" speed="22.22" width="3.75"/>
    <lane disallow="pedestrian tram rail_urban rail rail_electric rail_fast ship" id=":9_1_2" index="2" length="46.65" shape="283.52,548.17 238.10,558.79" speed="22.22" width="3.75"/>
  </edge>
  <edge function="internal" id=":9.8_0">
    <lane disallow="pedestrian tram rail_urban rail rail_electric rail_fast ship" id=":9.8_0_0" index="0" length="0.30" shape="740.19,412.50 740.47,412.41" speed="22.22" width="3.75"/>
    <lane disallow="pedestrian tram rail_urban rail rail_electric rail_fast ship" id=":9.8_0_1" index="1" length="0.30" shape="741.38,416.06 741.66,415.96" speed="22.22" width="3.75"/>
    <lane disallow="pedestrian tram rail_urban rail rail_electric rail_fast ship" id=":9.8_0_2" index="2" length="0.30" shape="742.56,419.62 742.85,419.52" speed="22.22" width="3.75"/>
  </edge>
  <edge from="0.begin" id="-0" priority="1" shape="1238.69,203.56 1237.34,204.17 1235.97,204.78 1234.59,205.41 1233.19,206.05 1231.77,206.70 1230.34,207.36 1228.89,208.03 1227.42,208.71 1225.93,209.40 1224.43,210.10 1222.91,210.81 1221.38,211.53 1219.83,212.27 1218.26,213.01 1216.68,213.76 1215.08,214.52 1213.47,215.29 1211.84,216.07 1210.19,216.85 1208.53,217.65 1206.85,218.46 1205.16,219.27 1203.45,220.10 1201.73,220.93 1199.99,221.77 1198.24,222.63 1196.47,223.48 1194.69,224.35 1192.89,225.23 1191.08,226.11 1189.25,227.01 1187.41,227.91 1185.56,228.82 1183.69,229.74 1181.81,230.66 1179.91,231.59 1178.00,232.53 1176.07,233.48 1174.14,234.44 1172.18,235.40 1170.22,236.37 1168.24,237.35 1166.25,238.33 1164.24,239.33 1162.23,240.33 1160.20,241.33 1158.15,242.34 1156.10,243.36 1154.03,244.39 1151.95,245.42 1149.85,246.46 1147.75,247.50 1145.63,248.56 1143.50,249.61 1141.36,250.68 1139.20,251.74" to="0" type="driving">
    <lane disallow="pedestrian tram rail_urban rail rail_electric rail_fast ship" id="-0_0" index="0" length="106.33" shape="1242.53,212.11 1241.19,212.71 1239.84,213.32 1238.47,213.95 1237.09,214.58 1235.68,215.22 1234.26,215.87 1232.82,216.54 1231.37,217.21 1229.89,217.90 1228.40,218.59 1226.90,219.30 1225.37,220.02 1223.83,220.74 1222.27,221.48 1220.70,222.23 1219.11,222.98 1217.50,223.75 1215.88,224.52 1214.24,225.31 1212.59,226.10 1210.92,226.90 1209.23,227.72 1207.53,228.54 1205.81,229.37 1204.08,230.21 1202.34,231.06 1200.57,231.91 1198.80,232.78 1197.00,233.65 1195.20,234.54 1193.37,235.43 1191.54,236.33 1189.69,237.24 1187.82,238.15 1185.94,239.07 1184.05,240.01 1182.14,240.94 1180.22,241.89 1178.28,242.85 1176.33,243.81 1174.37,244.78 1172.39,245.75 1170.40,246.74 1168.40,247.73 1166.39,248.73 1164.36,249.73 1162.31,250.74 1160.26,251.76 1158.19,252.79 1156.11,253.82 1154.02,254.86 1151.91,255.90 1149.80,256.95 1147.67,258.01 1146.96,258.36" speed="22.22" type="driving" width="3.75"/>
    <lane disallow="pedestrian tram rail_urban rail rail_electric rail_fast ship" id="-0_1" index="1" length="106.33" shape="1240.99,208.69 1239.65,209.30 1238.29,209.91 1236.92,210.53 1235.53,211.17 1234.12,211.81 1232.69,212.47 1231.25,213.14 1229.79,213.81 1228.31,214.50 1226.81,215.20 1225.30,215.91 1223.78,216.62 1222.23,217.35 1220.67,218.09 1219.09,218.84 1217.50,219.60 1215.89,220.36 1214.26,221.14 1212.62,221.93 1210.96,222.72 1209.29,223.53 1207.60,224.34 1205.90,225.16 1204.18,225.99 1202.45,226.83 1200.70,227.68 1198.93,228.54 1197.15,229.41 1195.36,230.28 1193.55,231.17 1191.73,232.06 1189.89,232.96 1188.03,233.87 1186.17,234.78 1184.29,235.71 1182.39,236.64 1180.48,237.58 1178.56,238.53 1176.62,239.48 1174.67,240.45 1172.71,241.42 1170.73,242.39 1168.74,243.38 1166.74,244.37 1164.72,245.37 1162.69,246.37 1160.65,247.38 1158.59,248.40 1156.53,249.43 1154.45,250.46 1152.35,251.50 1150.25,252.54 1148.13,253.59 1146.00,254.65 1145.29,255.00" speed="22.22" type="driving" width="3.75"/>
    <lane disallow="pedestrian tram rail_urban rail rail_electric rail_fast ship" id="-0_2" index="2" length="106.33" shape="1239.45,205.27 1238.11,205.88 1236.75,206.49 1235.37,207.12 1233.97,207.76 1232.55,208.40 1231.12,209.06 1229.67,209.73 1228.21,210.41 1226.73,211.10 1225.23,211.80 1223.71,212.51 1222.18,213.23 1220.63,213.96 1219.07,214.70 1217.48,215.45 1215.89,216.21 1214.27,216.98 1212.65,217.76 1211.00,218.54 1209.34,219.34 1207.67,220.15 1205.97,220.96 1204.27,221.79 1202.55,222.62 1200.81,223.46 1199.06,224.31 1197.29,225.17 1195.51,226.04 1193.71,226.91 1191.90,227.80 1190.08,228.69 1188.24,229.59 1186.38,230.50 1184.51,231.42 1182.63,232.34 1180.74,233.28 1178.83,234.22 1176.90,235.16 1174.96,236.12 1173.01,237.08 1171.05,238.05 1169.07,239.03 1167.08,240.02 1165.08,241.01 1163.06,242.01 1161.03,243.01 1158.98,244.02 1156.93,245.04 1154.86,246.07 1152.78,247.10 1150.69,248.14 1148.58,249.18 1146.46,250.23 1144.33,251.29 1143.62,251.64" speed="22.22" type="driving" width="3.75"/>
  </edge>
  <edge from="0" id="-1" priority="1" shape="1139.20,251.74 1137.71,252.48 1136.22,253.23 1134.72,253.97 1133.21,254.72 1131.70,255.47 1130.18,256.22 1128.66,256.98 1127.13,257.73 1125.60,258.49 1124.06,259.26 1122.52,260.02 1120.97,260.79 1119.41,261.56 1117.85,262.33 1116.29,263.11 1114.72,263.89 1113.15,264.66 1111.57,265.45 1109.98,266.23 1108.39,267.02 1106.80,267.81 1105.20,268.60 1103.60,269.39 1101.99,270.18 1100.37,270.98 1098.76,271.78 1097.13,272.58 1095.51,273.38 1093.87,274.19 1092.24,274.99 1090.59,275.80 1088.95,276.61 1087.30,277.42 1085.64,278.24 1083.98,279.05 1082.32,279.87 1080.65,280.69 1078.98,281.51 1077.30,282.33 1075.62,283.16 1073.93,283.98 1072.24,284.81 1070.55,285.64 1068.85,286.47 1067.15,287.30 1065.44,288.13 1063.73,288.97 1062.02,289.80 1060.30,290.64 1058.58,291.48 1056.85,292.32 1055.12,293.16 1053.39,294.00 1051.65,294.84 1049.91,295.69 1048.16,296.53 1046.41,297.38 1044.66,298.23 1042.90,299.08 1041.14,299.93 1039.38,300.78 1037.61,301.63 1035.84,302.48 1034.07,303.33 1032.29,304.19 1030.51,305.04 1028.72,305.90 1026.93,306.76 1025.14,307.61 1023.35,308.47 1021.55,309.33 1019.75,310.19 1017.95,311.05 1016.14,311.91 1014.33,312.77 1012.51,313.63 1010.70,314.49 1008.88,315.36 1007.06,316.22 1005.23,317.08 1003.40,317.95 1001.57,318.81 999.74,319.68 997.90,320.54 996.06,321.41 994.22,322.27 992.37,323.14 990.52,324.00 988.67,324.87 986.82,325.73 984.96,326.60 983.11,327.47 981.24,328.33 979.38,329.20 977.51,330.06 975.65,330.93 973.78,331.79 971.90,332.66 970.03,333.53 968.15,334.39 966.27,335.26 964.39,336.12 962.50,336.98 960.62,337.85 958.73,338.71 956.84,339.58 954.94,340.44 953.05,341.30 951.15,342.16 949.25,343.02 947.35,343.89 945.45,344.75 943.55,345.61 941.64,346.47 939.73,347.32 937.82,348.18 935.91,349.04 934.00,349.90 932.08,350.75 930.17,351.61 928.25,352.46 926.33,353.31 924.41,354.17 922.49,355.02 920.56,355.87 918.64,356.72 916.71,357.57 914.78,358.41 912.85,359.26 910.92,360.11 908.99,360.95 907.06,361.79 905.12,362.64 903.18,363.48 901.25,364.32 899.31,365.15 897.37,365.99 895.43,366.83 893.49,367.66 891.55,368.49 889.61,369.32 887.66,370.15 885.72,370.98 883.77,371.81 881.83,372.64 879.88,373.46 877.93,374.28 875.98,375.10 874.03,375.92 872.08,376.74 870.13,377.55 868.18,378.37 866.23,379.18 864.28,379.99 862.33,380.80 860.37,381.60 858.42,382.41 856.47,383.21 854.51,384.01 852.56,384.81 850.61,385.61 848.65,386.40 846.70,387.19 844.74,387.98 842.79,388.77 840.83,389.56 838.88,390.34 836.92,391.12 834.97,391.90 833.01,392.68 831.06,393.46 829.10,394.23 827.15,395.00 825.19,395.77 823.24,396.53 821.28,397.29 819.33,398.05 817.38,398.81 815.42,399.57 813.47,400.32 811.52,401.07 809.57,401.82 807.61,402.56 805.66,403.30 803.71,404.04 801.76,404.78 799.81,405.51 797.86,406.24 795.92,406.97 793.97,407.69 792.02,408.42 790.08,409.14 788.13,409.85 786.19,410.56 784.24,411.27 782.30,411.98 780.36,412.68" to="15" type="driving">