<?xml version='1.0' encoding='UTF-8'?>
<!-- generated on 2022-09-02 15:34:13 by Eclipse SUMO netconvert Version 1.13.0
<configuration xmlns:xsi="http://www.w3.org/2001/XMLSchema-instance" xsi:noNamespaceSchemaLocation="http://sumo.dlr.de/xsd/netconvertConfiguration.xsd">

    <input>
        <opendrive-files value="map\classification\19\34772552\34772552.xodr"/>
    </input>

    <output>
        <output-file value="C:\Users\LinGe\AppData\Local\Temp\tmpwibfxmmz\34772552.net.xml"/>
    </output>

    <processing>
        <geometry.max-grade.fix value="false"/>
    </processing>

    <tls_building>
        <tls.left-green.time value="0"/>
    </tls_building>

    <junctions>
        <rectangular-lane-cut value="true"/>
    </junctions>

    <report>
        <aggregate-warnings value="5"/>
    </report>

</configuration>
-->
<net xmlns:xsi="http://www.w3.org/2001/XMLSchema-instance" version="1.9" junctionCornerDetail="5" rectangularLaneCut="true" limitTurnSpeed="5.50" xsi:noNamespaceSchemaLocation="http://sumo.dlr.de/xsd/net_file.xsd">
  <location netOffset="1.56,101.26" convBoundary="0.00,0.00,1102.73,1302.51" origBoundary="-1.56,-101.26,1101.18,1201.26" projParameter="!"/>
  <type id="bidirectional" priority="1" speed="1.39" disallow="pedestrian tram rail_urban rail rail_electric rail_fast ship" width="3.65"/>
  <type id="border" priority="0" speed="1.39" disallow="all" discard="1" width="0.10"/>
  <type id="driving" priority="1" speed="13.89" disallow="pedestrian tram rail_urban rail rail_electric rail_fast ship" width="3.65"/>
  <type id="entry" priority="1" speed="22.22" disallow="pedestrian tram rail_urban rail rail_electric rail_fast ship" width="3.65"/>
  <type id="exit" priority="1" speed="22.22" disallow="pedestrian tram rail_urban rail rail_electric rail_fast ship" width="3.65"/>
  <type id="median" priority="0" speed="1.39" disallow="all" discard="1" width="0.10"/>
  <type id="mwyEntry" priority="1" speed="22.22" allow="private emergency authority army vip passenger hov taxi bus coach delivery truck trailer motorcycle evehicle custom1 custom2" width="3.65"/>
  <type id="mwyExit" priority="1" speed="22.22" allow="private emergency authority army vip passenger hov taxi bus coach delivery truck trailer motorcycle evehicle custom1 custom2" width="3.65"/>
  <type id="none" priority="0" speed="1.39" disallow="all" discard="1" width="1.00"/>
  <type id="offRamp" priority="1" speed="22.22" allow="private emergency authority army vip passenger hov taxi bus coach delivery truck trailer motorcycle evehicle custom1 custom2" width="3.65"/>
  <type id="onRamp" priority="1" speed="22.22" allow="private emergency authority army vip passenger hov taxi bus coach delivery truck trailer motorcycle evehicle custom1 custom2" width="3.65"/>
  <type id="parking" priority="1" speed="1.39" disallow="pedestrian tram rail_urban rail rail_electric rail_fast ship" width="2.50"/>
  <type id="rail" priority="3" speed="33.33" allow="rail_urban rail rail_electric rail_fast" width="3.65"/>
  <type id="restricted" priority="0" speed="13.89" disallow="all" width="3.65"/>
  <type id="roadWorks" priority="0" speed="1.39" allow="authority" width="3.65"/>
  <type id="shoulder" priority="0" speed="1.39" disallow="all" discard="1" width="1.00"/>
  <type id="special1" priority="1" speed="22.22" allow="custom1" discard="1" width="3.65"/>
  <type id="special2" priority="1" speed="22.22" allow="custom2" discard="1" width="3.65"/>
  <type id="special3" priority="1" speed="22.22" allow="custom1 custom2" discard="1" width="3.65"/>
  <type id="stop" priority="1" speed="13.89" disallow="pedestrian tram rail_urban rail rail_electric rail_fast ship" width="3.65"/>
  <type id="tram" priority="2" speed="13.89" allow="tram" width="3.65"/>
  <edge id=":0_0" function="internal">
    <lane id=":0_0_0" index="0" disallow="pedestrian tram rail_urban rail rail_electric rail_fast ship" speed="18.06" length="86.53" width="3.75" shape="974.48,329.36 960.57,342.51,0.03 940.63,361.98,0.08 922.15,380.27,0.12 912.63,389.87,0.15"/>
  </edge>
  <edge id=":0_1" function="internal">
    <lane id=":0_1_0" index="0" disallow="pedestrian tram rail_urban rail rail_electric rail_fast ship" speed="22.22" length="86.65" width="3.75" shape="974.48,329.36 909.70,386.94"/>
    <lane id=":0_1_1" index="1" disallow="pedestrian tram rail_urban rail rail_electric rail_fast ship" speed="22.22" length="86.65" width="3.75" shape="971.98,326.56 907.22,384.13"/>
    <lane id=":0_1_2" index="2" disallow="pedestrian tram rail_urban rail rail_electric rail_fast ship" speed="22.22" length="86.65" width="3.75" shape="969.48,323.76 904.73,381.32"/>
  </edge>
  <edge id=":1_0" function="internal">
    <lane id=":1_0_0" index="0" disallow="pedestrian tram rail_urban rail rail_electric rail_fast ship" speed="16.67" length="50.13" width="3.75" shape="104.49,95.62,20.00 114.06,105.06,19.98 125.44,115.37,19.95 135.63,124.21,19.92 141.65,129.23,19.91"/>
  </edge>
  <edge id=":1_1" function="internal">
    <lane id=":1_1_0" index="0" disallow="pedestrian tram rail_urban rail rail_electric rail_fast ship" speed="22.22" length="50.24" width="3.75" shape="104.49,95.62,20.00 138.72,132.41,20.00"/>
    <lane id=":1_1_1" index="1" disallow="pedestrian tram rail_urban rail rail_electric rail_fast ship" speed="22.22" length="50.24" width="3.75" shape="101.75,98.17,20.00 135.97,134.96,20.00"/>
    <lane id=":1_1_2" index="2" disallow="pedestrian tram rail_urban rail rail_electric rail_fast ship" speed="22.22" length="50.24" width="3.75" shape="99.00,100.73,20.00 133.22,137.51,20.00"/>
  </edge>
  <edge id=":13.12_0" function="internal">
    <lane id=":13.12_0_0" index="0" disallow="pedestrian tram rail_urban rail rail_electric rail_fast ship" speed="11.11" length="0.30" width="3.75" shape="681.49,431.92,7.35 681.79,431.97,7.34"/>
  </edge>
  <edge id=":15.14_0" function="internal">
    <lane id=":15.14_0_0" index="0" disallow="pedestrian tram rail_urban rail rail_electric rail_fast ship" speed="13.89" length="0.30" width="3.75" shape="424.21,891.83,10.25 423.92,891.79,10.25"/>
  </edge>
  <edge id=":2_0" function="internal">
    <lane id=":2_0_0" index="0" disallow="pedestrian tram rail_urban rail rail_electric rail_fast ship" speed="16.67" length="159.23" width="3.75" shape="893.86,365.20,0.00 1015.38,262.31"/>
  </edge>
  <edge id=":2_1" function="internal">
    <lane id=":2_1_0" index="0" disallow="pedestrian tram rail_urban rail rail_electric rail_fast ship" speed="22.22" length="159.07" width="3.75" shape="896.65,368.13 1015.38,262.31"/>
    <lane id=":2_1_1" index="1" disallow="pedestrian tram rail_urban rail rail_electric rail_fast ship" speed="22.22" length="159.07" width="3.75" shape="899.13,370.94 1017.88,265.11"/>
    <lane id=":2_1_2" index="2" disallow="pedestrian tram rail_urban rail rail_electric rail_fast ship" speed="22.22" length="159.07" width="3.75" shape="901.62,373.75 1020.38,267.90"/>
  </edge>
  <edge id=":2.1_0" function="internal">
    <lane id=":2.1_0_0" index="0" disallow="pedestrian tram rail_urban rail rail_electric rail_fast ship" speed="22.22" length="0.30" width="3.75" shape="586.28,656.30 586.04,656.48"/>
    <lane id=":2.1_0_1" index="1" disallow="pedestrian tram rail_urban rail rail_electric rail_fast ship" speed="22.22" length="0.30" width="3.75" shape="584.07,653.27 583.83,653.44"/>
    <lane id=":2.1_0_2" index="2" disallow="pedestrian tram rail_urban rail rail_electric rail_fast ship" speed="22.22" length="0.30" width="3.75" shape="581.87,650.23 581.63,650.41"/>
  </edge>
  <edge id=":3_0" function="internal">
    <lane id=":3_0_0" index="0" disallow="pedestrian tram rail_urban rail rail_electric rail_fast ship" speed="18.06" length="55.31" width="3.75" shape="225.63,266.16,19.94 220.60,259.14,19.95 211.38,246.96,19.97 200.76,233.51,19.98 191.50,222.67,20.00"/>
  </edge>
  <edge id=":3_1" function="internal">
    <lane id=":3_1_0" index="0" disallow="pedestrian tram rail_urban rail rail_electric rail_fast ship" speed="22.22" length="54.86" width="3.75" shape="228.77,262.91,20.00 191.50,222.67,20.00"/>
    <lane id=":3_1_1" index="1" disallow="pedestrian tram rail_urban rail rail_electric rail_fast ship" speed="22.22" length="54.86" width="3.75" shape="231.53,260.37,20.00 194.25,220.12,20.00"/>
    <lane id=":3_1_2" index="2" disallow="pedestrian tram rail_urban rail rail_electric rail_fast ship" speed="22.22" length="54.86" width="3.75" shape="234.28,257.82,20.00 197.00,217.57,20.00"/>
  </edge>
  <edge id=":4.3_0" function="internal">
    <lane id=":4.3_0_0" index="0" disallow="pedestrian tram rail_urban rail rail_electric rail_fast ship" speed="22.22" length="0.30" width="3.75" shape="572.66,638.07 572.90,637.90"/>
    <lane id=":4.3_0_1" index="1" disallow="pedestrian tram rail_urban rail rail_electric rail_fast ship" speed="22.22" length="0.30" width="3.75" shape="574.86,641.11 575.11,640.93"/>
    <lane id=":4.3_0_2" index="2" disallow="pedestrian tram rail_urban rail rail_electric rail_fast ship" speed="22.22" length="0.30" width="3.75" shape="577.07,644.14 577.31,643.96"/>
  </edge>
  <edge id=":8.7_0" function="internal">
    <lane id=":8.7_0_0" index="0" disallow="pedestrian tram rail_urban rail rail_electric rail_fast ship" speed="22.22" length="0.30" width="3.75" shape="611.87,656.78,20.00 612.06,657.01,20.00"/>
    <lane id=":8.7_0_1" index="1" disallow="pedestrian tram rail_urban rail rail_electric rail_fast ship" speed="22.22" length="0.30" width="3.75" shape="608.95,659.14,20.00 609.14,659.37,20.00"/>
    <lane id=":8.7_0_2" index="2" disallow="pedestrian tram rail_urban rail rail_electric rail_fast ship" speed="22.22" length="0.30" width="3.75" shape="606.03,661.49,20.00 606.22,661.72,20.00"/>
  </edge>
  <edge id=":9.10_0" function="internal">
    <lane id=":9.10_0_0" index="0" disallow="pedestrian tram rail_urban rail rail_electric rail_fast ship" speed="22.22" length="0.30" width="3.75" shape="594.35,671.30,20.00 594.17,671.07,20.00"/>
    <lane id=":9.10_0_1" index="1" disallow="pedestrian tram rail_urban rail rail_electric rail_fast ship" speed="22.22" length="0.30" width="3.75" shape="597.27,668.95,20.00 597.08,668.72,20.00"/>
    <lane id=":9.10_0_2" index="2" disallow="pedestrian tram rail_urban rail rail_electric rail_fast ship" speed="22.22" length="0.30" width="3.75" shape="600.19,666.60,20.00 600.00,666.36,20.00"/>
  </edge>
  <edge id="-0" from="0.begin" to="0" priority="1" type="driving" shape="1102.73,202.87 1101.88,203.61 1101.01,204.35 1100.12,205.12 1099.21,205.90 1098.29,206.69 1097.35,207.50 1096.39,208.33 1095.42,209.17 1094.43,210.03 1093.43,210.90 1092.41,211.79 1091.37,212.70 1090.31,213.62 1089.25,214.55 1088.16,215.50 1087.06,216.46 1085.94,217.44 1084.81,218.44 1083.66,219.44 1082.50,220.47 1081.32,221.50 1080.13,222.55 1078.92,223.62 1077.70,224.70 1076.47,225.79 1075.21,226.90 1073.95,228.02 1072.67,229.15 1071.37,230.30 1070.06,231.46 1068.74,232.63 1067.40,233.82 1066.05,235.02 1064.68,236.23 1063.30,237.45 1061.91,238.69 1060.50,239.94 1059.08,241.21 1057.65,242.48 1056.20,243.77 1054.74,245.07 1053.27,246.38 1051.79,247.71 1050.29,249.04 1048.78,250.39 1047.25,251.75 1045.72,253.12 1044.17,254.50 1042.61,255.89 1041.03,257.30 1039.45,258.71 1037.85,260.14 1036.24,261.58 1034.62,263.03 1032.99,264.49 1031.34,265.96 1029.69,267.44 1028.02,268.93 1026.34,270.43 1024.65,271.94 1022.95,273.46 1021.23,274.99 1019.51,276.53 1017.78,278.08 1016.03,279.64 1014.28,281.21 1012.51,282.79 1010.74,284.38 1008.95,285.98 1007.15,287.59 1005.35,289.20 1003.53,290.83 1001.70,292.46 999.87,294.10 998.02,295.75 996.16,297.41 994.30,299.08 992.42,300.76 990.54,302.44 988.65,304.13 986.74,305.83 984.83,307.54 982.91,309.26 980.98,310.98 979.05,312.71 977.10,314.45 975.14,316.19 973.18,317.95 971.21,319.71 969.23,321.47 967.24,323.25 965.25,325.03">
    <lane id="-0_0" index="0" disallow="pedestrian tram rail_urban rail rail_electric rail_fast ship" speed="22.22" length="179.79" width="3.75" shape="1108.83,210.00 1107.97,210.73 1107.11,211.47 1106.23,212.22 1105.33,213.00 1104.41,213.79 1103.48,214.59 1102.53,215.42 1101.56,216.25 1100.58,217.11 1099.58,217.98 1098.56,218.86 1097.53,219.76 1096.48,220.68 1095.42,221.61 1094.34,222.55 1093.24,223.51 1092.13,224.49 1091.00,225.48 1089.85,226.49 1088.70,227.51 1087.52,228.54 1086.33,229.59 1085.13,230.65 1083.91,231.73 1082.67,232.82 1081.42,233.92 1080.16,235.04 1078.88,236.17 1077.59,237.31 1076.28,238.47 1074.96,239.64 1073.62,240.83 1072.27,242.03 1070.91,243.24 1069.53,244.46 1068.14,245.70 1066.73,246.95 1065.32,248.21 1063.88,249.48 1062.44,250.77 1060.98,252.07 1059.51,253.38 1058.02,254.70 1056.53,256.04 1055.02,257.39 1053.49,258.74 1051.96,260.11 1050.41,261.50 1048.85,262.89 1047.28,264.29 1045.69,265.71 1044.09,267.13 1042.49,268.57 1040.87,270.02 1039.23,271.48 1037.59,272.95 1035.93,274.43 1034.27,275.92 1032.59,277.42 1030.90,278.93 1029.20,280.45 1027.48,281.98 1025.76,283.52 1024.03,285.07 1022.28,286.63 1020.53,288.20 1018.76,289.78 1016.99,291.37 1015.20,292.97 1013.40,294.57 1011.59,296.19 1009.78,297.81 1007.95,299.45 1006.11,301.09 1004.27,302.74 1002.41,304.40 1000.55,306.07 998.67,307.74 996.79,309.43 994.89,311.12 992.99,312.82 991.08,314.53 989.16,316.25 987.23,317.97 985.29,319.70 983.34,321.44 981.39,323.19 979.42,324.94 977.45,326.70 975.47,328.47 974.48,329.36" type="driving"/>
    <lane id="-0_1" index="1" disallow="pedestrian tram rail_urban rail rail_electric rail_fast ship" speed="22.22" length="179.79" width="3.75" shape="1106.39,207.15 1105.54,207.88 1104.67,208.62 1103.78,209.38 1102.88,210.16 1101.96,210.95 1101.03,211.76 1100.08,212.58 1099.11,213.42 1098.12,214.28 1097.12,215.15 1096.10,216.03 1095.07,216.94 1094.01,217.85 1092.95,218.79 1091.87,219.73 1090.77,220.69 1089.65,221.67 1088.52,222.66 1087.38,223.67 1086.22,224.69 1085.04,225.72 1083.85,226.77 1082.65,227.84 1081.42,228.91 1080.19,230.01 1078.94,231.11 1077.67,232.23 1076.39,233.36 1075.10,234.51 1073.79,235.67 1072.47,236.84 1071.13,238.02 1069.78,239.22 1068.42,240.44 1067.04,241.66 1065.65,242.90 1064.24,244.15 1062.82,245.41 1061.39,246.68 1059.94,247.97 1058.49,249.27 1057.01,250.58 1055.53,251.90 1054.03,253.24 1052.52,254.59 1051.00,255.95 1049.46,257.32 1047.91,258.70 1046.35,260.09 1044.78,261.49 1043.19,262.91 1041.60,264.34 1039.99,265.77 1038.37,267.22 1036.73,268.68 1035.09,270.15 1033.43,271.63 1031.77,273.12 1030.09,274.62 1028.40,276.13 1026.70,277.65 1024.98,279.18 1023.26,280.73 1021.53,282.28 1019.78,283.84 1018.03,285.41 1016.26,286.98 1014.49,288.57 1012.70,290.17 1010.90,291.78 1009.10,293.39 1007.28,295.02 1005.45,296.65 1003.61,298.29 1001.77,299.95 999.91,301.61 998.05,303.27 996.17,304.95 994.29,306.63 992.39,308.33 990.49,310.03 988.58,311.73 986.66,313.45 984.73,315.17 982.79,316.91 980.85,318.64 978.89,320.39 976.93,322.14 974.96,323.90 972.98,325.67 971.98,326.56" type="driving"/>
    <lane id="-0_2" index="2" disallow="pedestrian tram rail_urban rail rail_electric rail_fast ship" speed="22.22" length="179.79" width="3.75" shape="1103.95,204.30 1103.10,205.03 1102.23,205.78 1101.34,206.54 1100.43,207.32 1099.51,208.11 1098.57,208.92 1097.62,209.75 1096.65,210.59 1095.66,211.45 1094.66,212.32 1093.64,213.21 1092.60,214.11 1091.55,215.03 1090.48,215.96 1089.40,216.91 1088.30,217.87 1087.18,218.85 1086.05,219.85 1084.90,220.85 1083.74,221.87 1082.56,222.91 1081.37,223.96 1080.17,225.02 1078.94,226.10 1077.71,227.20 1076.46,228.30 1075.19,229.42 1073.91,230.55 1072.61,231.70 1071.30,232.86 1069.98,234.03 1068.64,235.22 1067.29,236.42 1065.93,237.63 1064.55,238.86 1063.16,240.09 1061.75,241.34 1060.33,242.61 1058.90,243.88 1057.45,245.17 1055.99,246.47 1054.52,247.78 1053.03,249.11 1051.54,250.44 1050.02,251.79 1048.50,253.15 1046.96,254.52 1045.42,255.90 1043.85,257.29 1042.28,258.70 1040.70,260.11 1039.10,261.54 1037.49,262.98 1035.87,264.43 1034.24,265.88 1032.59,267.35 1030.93,268.83 1029.27,270.33 1027.59,271.83 1025.90,273.34 1024.20,274.86 1022.48,276.39 1020.76,277.93 1019.03,279.48 1017.28,281.04 1015.53,282.61 1013.76,284.19 1011.99,285.78 1010.20,287.38 1008.40,288.98 1006.60,290.60 1004.78,292.22 1002.95,293.86 1001.12,295.50 999.27,297.15 997.41,298.81 995.55,300.48 993.67,302.15 991.79,303.84 989.90,305.53 987.99,307.23 986.08,308.94 984.16,310.65 982.23,312.38 980.29,314.11 978.35,315.85 976.39,317.59 974.43,319.35 972.46,321.11 970.48,322.87 969.48,323.76" type="driving"/>
  </edge>
  <edge id="-1" from="0" to="2.1" priority="1" type="driving" shape="965.25,325.03 963.84,326.29 962.42,327.55 961.00,328.81 959.58,330.08 958.15,331.35 956.72,332.63 955.29,333.91 953.85,335.19 952.41,336.47 950.97,337.76 949.52,339.05 948.07,340.34 946.61,341.64 945.16,342.93 943.69,344.23 942.23,345.54 940.76,346.85 939.29,348.15 937.81,349.47 936.34,350.78 934.85,352.10 933.37,353.42 931.88,354.74 930.39,356.07 928.90,357.39 927.40,358.72 925.90,360.05 924.40,361.39 922.89,362.73 921.38,364.06 919.87,365.40 918.36,366.75 916.84,368.09 915.32,369.44 913.80,370.79 912.27,372.14 910.74,373.50 909.21,374.85 907.68,376.21 906.14,377.57 904.61,378.93 903.07,380.29 901.52,381.66 899.98,383.02 898.43,384.39 896.88,385.76 895.33,387.13 893.77,388.50 892.22,389.88 890.66,391.26 889.10,392.63 887.53,394.01 885.97,395.39 884.40,396.77 882.83,398.16 881.26,399.54 879.69,400.93 878.11,402.31 876.53,403.70 874.96,405.09 873.38,406.48 871.79,407.87 870.21,409.26 868.62,410.66 867.04,412.05 865.45,413.45 863.86,414.84 862.27,416.24 860.67,417.64 859.08,419.04 857.48,420.44 855.88,421.84 854.28,423.24 852.68,424.64 851.08,426.04 849.48,427.44 847.87,428.85 846.27,430.25 844.66,431.65 843.05,433.06 841.45,434.46 839.84,435.87 838.23,437.27 836.61,438.68 835.00,440.08 833.39,441.49 831.77,442.90 830.16,444.30 828.54,445.71 826.93,447.11 825.31,448.52 823.69,449.93 822.07,451.33 820.45,452.74 818.83,454.14 817.21,455.55 815.59,456.96 813.97,458.36 812.35,459.77 810.72,461.17 809.10,462.57 807.48,463.98 805.86,465.38 804.23,466.79 802.61,468.19 800.98,469.59 799.36,470.99 797.74,472.39 796.11,473.79 794.49,475.19 792.86,476.59 791.24,477.99 789.61,479.38 787.99,480.78 786.37,482.18 784.74,483.57 783.12,484.96 781.50,486.36 779.87,487.75 778.25,489.14 776.63,490.53 775.00,491.91 773.38,493.30 771.76,494.69 770.14,496.07 768.52,497.45 766.90,498.84 765.28,500.22 763.66,501.59 762.05,502.97 760.43,504.35 758.81,505.72 757.20,507.10 755.58,508.47 753.97,509.84 752.35,511.21 750.74,512.57 749.13,513.94 747.52,515.30 745.91,516.66 744.30,518.02 742.70,519.38 741.09,520.73 739.49,522.09 737.88,523.44 736.28,524.79 734.68,526.13 733.08,527.48 731.48,528.82 729.88,530.16 728.29,531.50 726.69,532.84 725.10,534.17 723.51,535.51 721.92,536.84 720.33,538.16 718.74,539.49 717.16,540.81 715.58,542.13 714.00,543.45 712.42,544.76 710.84,546.07 709.26,547.38 707.69,548.69 706.12,549.99 704.54,551.29 702.98,552.59 701.41,553.89 699.85,555.18 698.28,556.47 696.72,557.76 695.17,559.04 693.61,560.32 692.06,561.60 690.51,562.87 688.96,564.15 687.41,565.41 685.87,566.68 684.32,567.94 682.78,569.20 681.25,570.46 679.71,571.71 678.18,572.96 676.65,574.20 675.12,575.44 673.60,576.68 672.08,577.92 670.56,579.15 669.04,580.37 667.53,581.60 666.02,582.82 664.51,584.03 663.01,585.25 661.51,586.46 660.01,587.66 658.51,588.86 657.02,590.06 655.53,591.25 654.04,592.44 652.56,593.63 651.08,594.81 649.60,595.98 648.13,597.16 646.66,598.33 645.19,599.49 643.73,600.65 642.27,601.81 640.81,602.96 639.36,604.11 637.91,605.25 636.46,606.39 635.02,607.52 633.58,608.65 632.15,609.78 630.71,610.90 629.29,612.01 627.86,613.12 626.44,614.23 625.02,615.33 623.61,616.43 622.20,617.52 620.80,618.61 619.40,619.69 618.00,620.77 616.61,621.84 615.22,622.91 613.83,623.97 612.45,625.03 611.07,626.08 609.70,627.13 608.33,628.17 606.97,629.21 605.61,630.24 604.25,631.27 602.90,632.29 601.56,633.31 600.22,634.32 598.88,635.32 597.55,636.32 596.22,637.32 594.89,638.31 593.57,639.29 592.26,640.27 590.95,641.24 589.64,642.20 588.34,643.16 587.05,644.12 585.76,645.07 584.47,646.01 583.19,646.95 581.92,647.88 580.65,648.81">
    <lane id="-1_0" index="0" disallow="pedestrian tram rail_urban rail rail_electric rail_fast ship" speed="22.22" length="420.67" width="3.75" shape="909.70,386.94 909.28,387.31 907.73,388.68 906.19,390.05 904.64,391.42 903.09,392.79 901.53,394.16 899.98,395.53 898.42,396.91 896.86,398.28 895.30,399.66 893.73,401.04 892.17,402.42 890.60,403.81 889.03,405.19 887.46,406.58 885.88,407.96 884.31,409.35 882.73,410.74 881.15,412.13 879.57,413.52 877.98,414.91 876.40,416.31 874.81,417.70 873.22,419.10 871.63,420.49 870.04,421.89 868.45,423.29 866.85,424.69 865.26,426.09 863.66,427.49 862.06,428.89 860.46,430.29 858.86,431.69 857.26,433.10 855.65,434.50 854.05,435.90 852.44,437.31 850.83,438.71 849.22,440.12 847.61,441.52 846.00,442.93 844.39,444.34 842.78,445.74 841.16,447.15 839.55,448.56 837.93,449.97 836.31,451.37 834.70,452.78 833.08,454.19 831.46,455.60 829.84,457.00 828.22,458.41 826.60,459.82 824.98,461.23 823.35,462.63 821.73,464.04 820.11,465.45 818.48,466.85 816.86,468.26 815.24,469.66 813.61,471.07 811.99,472.47 810.36,473.88 808.74,475.28 807.11,476.69 805.48,478.09 803.86,479.49 802.23,480.89 800.61,482.29 798.98,483.69 797.35,485.09 795.73,486.49 794.10,487.89 792.47,489.29 790.85,490.68 789.22,492.08 787.60,493.47 785.97,494.87 784.35,496.26 782.72,497.65 781.10,499.04 779.47,500.43 777.85,501.81 776.23,503.20 774.61,504.59 772.98,505.97 771.36,507.35 769.74,508.73 768.12,510.11 766.50,511.49 764.88,512.87 763.27,514.24 761.65,515.61 760.03,516.99 758.42,518.36 756.80,519.72 755.19,521.09 753.58,522.46 751.96,523.82 750.35,525.18 748.74,526.54 747.14,527.90 745.53,529.25 743.92,530.61 742.32,531.96 740.71,533.31 739.11,534.66 737.51,536.00 735.91,537.34 734.31,538.69 732.71,540.02 731.12,541.36 729.52,542.70 727.93,544.03 726.34,545.36 724.75,546.68 723.16,548.01 721.58,549.33 719.99,550.65 718.41,551.97 716.83,553.28 715.25,554.59 713.67,555.90 712.10,557.21 710.52,558.51 708.95,559.82 707.38,561.11 705.82,562.41 704.25,563.70 702.69,564.99 701.13,566.28 699.57,567.56 698.01,568.84 696.46,570.12 694.90,571.39 693.35,572.66 691.80,573.93 690.26,575.20 688.72,576.46 687.18,577.72 685.64,578.97 684.10,580.22 682.57,581.47 681.04,582.72 679.51,583.96 677.98,585.20 676.46,586.43 674.94,587.66 673.42,588.89 671.91,590.11 670.40,591.33 668.89,592.55 667.38,593.76 665.88,594.97 664.38,596.17 662.88,597.37 661.39,598.57 659.90,599.76 658.41,600.95 656.93,602.14 655.45,603.32 653.97,604.49 652.49,605.67 651.02,606.84 649.55,608.00 648.09,609.16 646.62,610.32 645.17,611.47 643.71,612.61 642.26,613.76 640.81,614.89 639.37,616.03 637.93,617.16 636.49,618.28 635.06,619.40 633.63,620.52 632.20,621.63 630.78,622.74 629.36,623.84 627.94,624.93 626.53,626.03 625.13,627.11 623.72,628.20 622.32,629.27 620.93,630.35 619.54,631.41 618.15,632.48 616.77,633.53 615.39,634.59 614.01,635.63 612.64,636.68 611.27,637.71 609.91,638.74 608.55,639.77 607.20,640.79 605.85,641.81 604.51,642.82 603.17,643.83 601.83,644.82 600.50,645.82 599.17,646.81 597.85,647.79 596.53,648.77 595.22,649.74 593.91,650.71 592.61,651.67 591.31,652.62 590.01,653.57 588.72,654.52 587.44,655.46 586.28,656.30" type="driving"/>
    <lane id="-1_1" index="1" disallow="pedestrian tram rail_urban rail rail_electric rail_fast ship" speed="22.22" length="420.67" width="3.75" shape="907.22,384.13 906.79,384.50 905.25,385.87 903.70,387.24 902.15,388.61 900.60,389.98 899.05,391.35 897.50,392.72 895.94,394.10 894.38,395.47 892.82,396.85 891.25,398.23 889.69,399.61 888.12,400.99 886.55,402.38 884.98,403.76 883.40,405.15 881.83,406.54 880.25,407.92 878.67,409.31 877.09,410.71 875.51,412.10 873.92,413.49 872.34,414.88 870.75,416.28 869.16,417.67 867.57,419.07 865.97,420.47 864.38,421.87 862.78,423.27 861.19,424.67 859.59,426.07 857.99,427.47 856.39,428.87 854.79,430.27 853.18,431.68 851.58,433.08 849.97,434.48 848.36,435.89 846.76,437.29 845.15,438.70 843.53,440.10 841.92,441.51 840.31,442.92 838.70,444.32 837.08,445.73 835.47,447.14 833.85,448.54 832.23,449.95 830.62,451.36 829.00,452.77 827.38,454.17 825.76,455.58 824.14,456.99 822.52,458.39 820.90,459.80 819.27,461.21 817.65,462.61 816.03,464.02 814.41,465.42 812.78,466.83 811.16,468.23 809.53,469.64 807.91,471.04 806.28,472.45 804.66,473.85 803.03,475.25 801.41,476.65 799.78,478.05 798.16,479.45 796.53,480.85 794.91,482.25 793.28,483.65 791.66,485.05 790.03,486.44 788.41,487.84 786.78,489.23 785.16,490.63 783.53,492.02 781.91,493.41 780.28,494.80 778.66,496.19 777.04,497.58 775.42,498.96 773.79,500.35 772.17,501.73 770.55,503.12 768.93,504.50 767.31,505.88 765.69,507.26 764.07,508.63 762.46,510.01 760.84,511.38 759.22,512.76 757.61,514.13 755.99,515.50 754.38,516.86 752.77,518.23 751.15,519.59 749.54,520.96 747.93,522.32 746.32,523.67 744.72,525.03 743.11,526.39 741.51,527.74 739.90,529.09 738.30,530.44 736.70,531.79 735.10,533.13 733.50,534.47 731.90,535.81 730.31,537.15 728.71,538.49 727.12,539.82 725.53,541.15 723.94,542.48 722.35,543.81 720.76,545.13 719.18,546.45 717.59,547.77 716.01,549.09 714.43,550.40 712.86,551.71 711.28,553.02 709.71,554.32 708.13,555.63 706.56,556.93 704.99,558.22 703.43,559.52 701.86,560.81 700.30,562.10 698.74,563.38 697.18,564.67 695.63,565.95 694.08,567.22 692.52,568.49 690.98,569.76 689.43,571.03 687.88,572.30 686.34,573.56 684.80,574.81 683.27,576.07 681.73,577.32 680.20,578.56 678.67,579.81 677.15,581.05 675.62,582.28 674.10,583.52 672.58,584.75 671.07,585.97 669.55,587.19 668.04,588.41 666.54,589.63 665.03,590.84 663.53,592.05 662.03,593.25 660.54,594.45 659.05,595.64 657.56,596.83 656.07,598.02 654.59,599.21 653.11,600.38 651.63,601.56 650.16,602.73 648.69,603.90 647.22,605.06 645.76,606.22 644.30,607.37 642.84,608.52 641.39,609.67 639.94,610.81 638.50,611.95 637.05,613.08 635.61,614.21 634.18,615.33 632.75,616.45 631.32,617.56 629.90,618.67 628.48,619.77 627.06,620.87 625.65,621.97 624.24,623.06 622.83,624.14 621.43,625.23 620.04,626.30 618.64,627.37 617.25,628.44 615.87,629.50 614.49,630.55 613.11,631.60 611.74,632.65 610.37,633.69 609.01,634.72 607.65,635.75 606.29,636.78 604.94,637.80 603.60,638.81 602.26,639.82 600.92,640.82 599.59,641.82 598.26,642.81 596.93,643.80 595.61,644.78 594.30,645.76 592.99,646.73 591.68,647.69 590.38,648.65 589.09,649.60 587.80,650.55 586.51,651.49 585.23,652.43 584.07,653.27" type="driving"/>
    <lane id="-1_2" index="2" disallow="pedestrian tram rail_urban rail rail_electric rail_fast ship" speed="22.22" length="420.67" width="3.75" shape="904.73,381.32 904.31,381.70 902.76,383.06 901.22,384.43 899.67,385.80 898.12,387.17 896.57,388.54 895.01,389.91 893.46,391.29 891.90,392.66 890.34,394.04 888.77,395.42 887.21,396.80 885.64,398.18 884.07,399.56 882.50,400.95 880.93,402.33 879.35,403.72 877.77,405.11 876.19,406.50 874.61,407.89 873.03,409.28 871.45,410.67 869.86,412.07 868.27,413.46 866.68,414.86 865.09,416.25 863.50,417.65 861.91,419.05 860.31,420.45 858.72,421.85 857.12,423.25 855.52,424.65 853.92,426.05 852.32,427.45 850.71,428.85 849.11,430.26 847.50,431.66 845.90,433.06 844.29,434.47 842.68,435.87 841.07,437.28 839.46,438.68 837.85,440.09 836.23,441.50 834.62,442.90 833.01,444.31 831.39,445.72 829.77,447.12 828.16,448.53 826.54,449.94 824.92,451.34 823.30,452.75 821.68,454.15 820.06,455.56 818.44,456.97 816.82,458.37 815.20,459.78 813.57,461.18 811.95,462.59 810.33,463.99 808.71,465.40 807.08,466.80 805.46,468.20 803.83,469.61 802.21,471.01 800.59,472.41 798.96,473.81 797.34,475.21 795.71,476.61 794.09,478.01 792.46,479.41 790.84,480.81 789.21,482.20 787.59,483.60 785.96,484.99 784.34,486.39 782.72,487.78 781.09,489.17 779.47,490.56 777.85,491.95 776.22,493.34 774.60,494.73 772.98,496.11 771.36,497.50 769.74,498.88 768.12,500.26 766.50,501.64 764.88,503.02 763.26,504.40 761.64,505.78 760.03,507.15 758.41,508.52 756.79,509.90 755.18,511.27 753.57,512.64 751.95,514.00 750.34,515.37 748.73,516.73 747.12,518.09 745.51,519.45 743.91,520.81 742.30,522.17 740.69,523.52 739.09,524.87 737.49,526.22 735.89,527.57 734.28,528.91 732.69,530.26 731.09,531.60 729.49,532.94 727.90,534.28 726.30,535.61 724.71,536.94 723.12,538.27 721.53,539.60 719.95,540.93 718.36,542.25 716.78,543.57 715.19,544.89 713.61,546.20 712.04,547.51 710.46,548.82 708.88,550.13 707.31,551.44 705.74,552.74 704.17,554.04 702.60,555.33 701.04,556.63 699.48,557.92 697.92,559.20 696.36,560.49 694.80,561.77 693.25,563.05 691.70,564.32 690.15,565.60 688.60,566.86 687.05,568.13 685.51,569.39 683.97,570.65 682.43,571.91 680.90,573.16 679.36,574.41 677.83,575.66 676.31,576.90 674.78,578.14 673.26,579.37 671.74,580.60 670.22,581.83 668.71,583.06 667.20,584.28 665.69,585.49 664.19,586.71 662.68,587.92 661.18,589.12 659.69,590.32 658.19,591.52 656.70,592.72 655.22,593.91 653.73,595.09 652.25,596.27 650.77,597.45 649.30,598.62 647.83,599.79 646.36,600.96 644.89,602.12 643.43,603.28 641.98,604.43 640.52,605.58 639.07,606.72 637.62,607.86 636.18,609.00 634.74,610.13 633.30,611.25 631.87,612.37 630.44,613.49 629.01,614.60 627.59,615.71 626.17,616.81 624.76,617.91 623.35,619.00 621.94,620.09 620.54,621.18 619.14,622.26 617.75,623.33 616.36,624.40 614.97,625.46 613.59,626.52 612.21,627.57 610.84,628.62 609.47,629.67 608.10,630.70 606.74,631.74 605.39,632.76 604.03,633.79 602.69,634.80 601.34,635.82 600.00,636.82 598.67,637.82 597.34,638.82 596.01,639.81 594.69,640.79 593.38,641.77 592.07,642.74 590.76,643.71 589.46,644.67 588.16,645.63 586.87,646.58 585.58,647.52 584.30,648.46 583.02,649.39 581.87,650.23" type="driving"/>
  </edge>