<?xml version='1.0' encoding='UTF-8'?>
<!-- generated on 2022-09-25 13:24:32 by Eclipse SUMO netconvert Version 1.13.0
<configuration xmlns:xsi="http://www.w3.org/2001/XMLSchema-instance" xsi:noNamespaceSchemaLocation="http://sumo.dlr.de/xsd/netconvertConfiguration.xsd">

    <input>
        <opendrive-files value="map_new_new\13\1\1.xodr"/>
    </input>

    <output>
        <output-file value="C:\Users\LinGe\AppData\Local\Temp\tmpxmmh8wz2\1.net.xml"/>
    </output>

    <processing>
        <geometry.max-grade.fix value="false"/>
    </processing>

    <tls_building>
        <tls.left-green.time value="0"/>
    </tls_building>

    <junctions>
        <rectangular-lane-cut value="true"/>
    </junctions>

    <report>
        <aggregate-warnings value="5"/>
    </report>

</configuration>
-->
<net xmlns:xsi="http://www.w3.org/2001/XMLSchema-instance" version="1.9" junctionCornerDetail="5" rectangularLaneCut="true" limitTurnSpeed="5.50" xsi:noNamespaceSchemaLocation="http://sumo.dlr.de/xsd/net_file.xsd">
  <location netOffset="1.56,101.26" convBoundary="0.00,0.00,1102.73,1302.51" origBoundary="-1.56,-101.26,1101.18,1201.26" projParameter="!"/>
  <type id="bidirectional" priority="1" speed="1.39" disallow="pedestrian tram rail_urban rail rail_electric rail_fast ship" width="3.65"/>
  <type id="border" priority="0" speed="1.39" disallow="all" discard="1" width="0.10"/>
  <type id="driving" priority="1" speed="13.89" disallow="pedestrian tram rail_urban rail rail_electric rail_fast ship" width="3.65"/>
  <type id="entry" priority="1" speed="22.22" disallow="pedestrian tram rail_urban rail rail_electric rail_fast ship" width="3.65"/>
  <type id="exit" priority="1" speed="22.22" disallow="pedestrian tram rail_urban rail rail_electric rail_fast ship" width="3.65"/>
  <type id="median" priority="0" speed="1.39" disallow="all" discard="1" width="0.10"/>
  <type id="mwyEntry" priority="1" speed="22.22" allow="private emergency authority army vip passenger hov taxi bus coach delivery truck trailer motorcycle evehicle custom1 custom2" width="3.65"/>
  <type id="mwyExit" priority="1" speed="22.22" allow="private emergency authority army vip passenger hov taxi bus coach delivery truck trailer motorcycle evehicle custom1 custom2" width="3.65"/>
  <type id="none" priority="0" speed="1.39" disallow="all" discard="1" width="1.00"/>
  <type id="offRamp" priority="1" speed="22.22" allow="private emergency authority army vip passenger hov taxi bus coach delivery truck trailer motorcycle evehicle custom1 custom2" width="3.65"/>
  <type id="onRamp" priority="1" speed="22.22" allow="private emergency authority army vip passenger hov taxi bus coach delivery truck trailer motorcycle evehicle custom1 custom2" width="3.65"/>
  <type id="parking" priority="1" speed="1.39" disallow="pedestrian tram rail_urban rail rail_electric rail_fast ship" width="2.50"/>
  <type id="rail" priority="3" speed="33.33" allow="rail_urban rail rail_electric rail_fast" width="3.65"/>
  <type id="restricted" priority="0" speed="13.89" disallow="all" width="3.65"/>
  <type id="roadWorks" priority="0" speed="1.39" allow="authority" width="3.65"/>
  <type id="shoulder" priority="0" speed="1.39" disallow="all" discard="1" width="1.00"/>
  <type id="special1" priority="1" speed="22.22" allow="custom1" discard="1" width="3.65"/>
  <type id="special2" priority="1" speed="22.22" allow="custom2" discard="1" width="3.65"/>
  <type id="special3" priority="1" speed="22.22" allow="custom1 custom2" discard="1" width="3.65"/>
  <type id="stop" priority="1" speed="13.89" disallow="pedestrian tram rail_urban rail rail_electric rail_fast ship" width="3.65"/>
  <type id="tram" priority="2" speed="13.89" allow="tram" width="3.65"/>
  <edge id=":0_0" function="internal">
    <lane id=":0_0_0" index="0" disallow="pedestrian tram rail_urban rail rail_electric rail_fast ship" speed="15.97" length="137.26" width="3.75" shape="986.24,281.98 869.76,354.59"/>
  </edge>
  <edge id=":0_1" function="internal">
    <lane id=":0_1_0" index="0" disallow="pedestrian tram rail_urban rail rail_electric rail_fast ship" speed="22.22" length="137.30" width="3.75" shape="986.24,281.98 867.69,351.18"/>
    <lane id=":0_1_1" index="1" disallow="pedestrian tram rail_urban rail rail_electric rail_fast ship" speed="22.22" length="137.30" width="3.75" shape="984.36,278.74 865.79,347.95"/>
    <lane id=":0_1_2" index="2" disallow="pedestrian tram rail_urban rail rail_electric rail_fast ship" speed="22.22" length="137.30" width="3.75" shape="982.48,275.49 863.88,344.71"/>
  </edge>
  <edge id=":1_0" function="internal">
    <lane id=":1_0_0" index="0" disallow="pedestrian tram rail_urban rail rail_electric rail_fast ship" speed="15.28" length="81.51" width="3.75" shape="75.62,920.00 88.86,907.30 107.39,888.85 124.45,871.59 133.30,862.43"/>
  </edge>
  <edge id=":1_1" function="internal">
    <lane id=":1_1_0" index="0" disallow="pedestrian tram rail_urban rail rail_electric rail_fast ship" speed="22.22" length="81.64" width="3.75" shape="75.62,920.00 136.28,865.37"/>
    <lane id=":1_1_1" index="1" disallow="pedestrian tram rail_urban rail rail_electric rail_fast ship" speed="22.22" length="81.64" width="3.75" shape="78.13,922.79 138.79,868.16"/>
    <lane id=":1_1_2" index="2" disallow="pedestrian tram rail_urban rail rail_electric rail_fast ship" speed="22.22" length="81.64" width="3.75" shape="80.64,925.57 141.29,870.94"/>
  </edge>
  <edge id=":10_0" function="internal">
    <lane id=":10_0_0" index="0" disallow="pedestrian tram rail_urban rail rail_electric rail_fast ship" speed="15.97" length="163.04" width="3.75" shape="872.98,1089.38,20.00 981.98,1210.62,20.00"/>
  </edge>
  <edge id=":10_1" function="internal">
    <lane id=":10_1_0" index="0" disallow="pedestrian tram rail_urban rail rail_electric rail_fast ship" speed="22.22" length="162.91" width="3.75" shape="870.16,1092.17,20.00 981.98,1210.62,20.00"/>
    <lane id=":10_1_1" index="1" disallow="pedestrian tram rail_urban rail rail_electric rail_fast ship" speed="22.22" length="162.91" width="3.75" shape="867.43,1094.74,20.00 979.26,1213.20,20.00"/>
    <lane id=":10_1_2" index="2" disallow="pedestrian tram rail_urban rail rail_electric rail_fast ship" speed="22.22" length="162.91" width="3.75" shape="864.70,1097.31,20.00 976.53,1215.77,20.00"/>
  </edge>
  <edge id=":11_0" function="internal">
    <lane id=":11_0_0" index="0" disallow="pedestrian tram rail_urban rail rail_electric rail_fast ship" speed="9.72" length="28.73" width="3.75" shape="667.37,529.44,5.63 663.91,534.22,5.64 659.07,541.17,5.65 654.33,548.19,5.66 651.16,553.15,5.67"/>
  </edge>
  <edge id=":11_1" function="internal">
    <lane id=":11_1_0" index="0" disallow="pedestrian tram rail_urban rail rail_electric rail_fast ship" speed="14.58" length="29.38" width="3.75" shape="667.37,529.44,5.63 663.49,534.02,5.65 657.66,540.46,5.67 651.69,546.78,5.70 647.42,550.99,5.72"/>
  </edge>
  <edge id=":12_0" function="internal">
    <lane id=":12_0_0" index="0" disallow="pedestrian tram rail_urban rail rail_electric rail_fast ship" speed="9.72" length="3.01" width="3.75" shape="506.03,429.70,7.20 508.92,430.50,7.08"/>
  </edge>
  <edge id=":12_1" function="internal">
    <lane id=":12_1_0" index="0" disallow="pedestrian tram rail_urban rail rail_electric rail_fast ship" speed="11.81" length="3.00" width="3.75" shape="506.03,429.71,7.14 508.92,430.50,7.08"/>
  </edge>
  <edge id=":13_0" function="internal">
    <lane id=":13_0_0" index="0" disallow="pedestrian tram rail_urban rail rail_electric rail_fast ship" speed="9.72" length="70.15" width="3.75" shape="687.81,817.77,14.72 720.70,879.73,14.75"/>
  </edge>
  <edge id=":13_1" function="internal">
    <lane id=":13_1_0" index="0" disallow="pedestrian tram rail_urban rail rail_electric rail_fast ship" speed="10.42" length="69.89" width="3.75" shape="684.51,819.94,14.58 720.70,879.73,14.75"/>
  </edge>
  <edge id=":14_0" function="internal">
    <lane id=":14_0_0" index="0" disallow="pedestrian tram rail_urban rail rail_electric rail_fast ship" speed="8.33" length="27.67" width="3.75" shape="418.42,847.95,7.85 393.86,835.21,7.78"/>
  </edge>
  <edge id=":14_1" function="internal">
    <lane id=":14_1_0" index="0" disallow="pedestrian tram rail_urban rail rail_electric rail_fast ship" speed="12.50" length="27.37" width="3.75" shape="419.74,844.02,7.88 414.27,842.49,7.86 406.66,840.03,7.83 399.11,837.36,7.80 393.86,835.21,7.78"/>
  </edge>
  <edge id=":14.13_0" function="internal">
    <lane id=":14.13_0_0" index="0" disallow="pedestrian tram rail_urban rail rail_electric rail_fast ship" speed="22.22" length="0.30" width="3.75" shape="456.13,669.96,20.00 455.94,669.72,20.00"/>
    <lane id=":14.13_0_1" index="1" disallow="pedestrian tram rail_urban rail rail_electric rail_fast ship" speed="22.22" length="0.30" width="3.75" shape="459.05,667.60,20.00 458.86,667.36,20.00"/>
    <lane id=":14.13_0_2" index="2" disallow="pedestrian tram rail_urban rail rail_electric rail_fast ship" speed="22.22" length="0.30" width="3.75" shape="461.96,665.24,20.00 461.78,665.01,20.00"/>
  </edge>
  <edge id=":15_0" function="internal">
    <lane id=":15_0_0" index="0" disallow="pedestrian tram rail_urban rail rail_electric rail_fast ship" speed="8.33" length="84.65" width="3.75" shape="164.46,372.76,15.38 137.85,292.41,15.42"/>
  </edge>
  <edge id=":15_1" function="internal">
    <lane id=":15_1_0" index="0" disallow="pedestrian tram rail_urban rail rail_electric rail_fast ship" speed="13.89" length="84.52" width="3.75" shape="168.08,371.33,15.38 137.85,292.41,15.42"/>
  </edge>
  <edge id=":19.18_0" function="internal">
    <lane id=":19.18_0_0" index="0" disallow="pedestrian tram rail_urban rail rail_electric rail_fast ship" speed="8.33" length="0.28" width="3.75" shape="375.28,827.37,6.76 375.01,827.30,6.74"/>
  </edge>
  <edge id=":2_0" function="internal">
    <lane id=":2_0_0" index="0" disallow="pedestrian tram rail_urban rail rail_electric rail_fast ship" speed="15.97" length="41.34" width="3.75" shape="80.25,96.65,20.00 87.47,106.31,20.00 95.43,115.73,20.00 102.46,123.50,20.00 106.91,128.20,20.00"/>
  </edge>
  <edge id=":2_1" function="internal">
    <lane id=":2_1_0" index="0" disallow="pedestrian tram rail_urban rail rail_electric rail_fast ship" speed="22.22" length="41.45" width="3.75" shape="80.25,96.65,20.00 103.48,130.98,20.00"/>
    <lane id=":2_1_1" index="1" disallow="pedestrian tram rail_urban rail rail_electric rail_fast ship" speed="22.22" length="41.45" width="3.75" shape="77.15,98.75,20.00 100.37,133.08,20.00"/>
    <lane id=":2_1_2" index="2" disallow="pedestrian tram rail_urban rail rail_electric rail_fast ship" speed="22.22" length="41.45" width="3.75" shape="74.04,100.85,20.00 97.26,135.19,20.00"/>
  </edge>
  <edge id=":2.1_0" function="internal">
    <lane id=":2.1_0_0" index="0" disallow="pedestrian tram rail_urban rail rail_electric rail_fast ship" speed="22.22" length="0.30" width="3.75" shape="522.35,568.87 522.11,569.04"/>
    <lane id=":2.1_0_1" index="1" disallow="pedestrian tram rail_urban rail rail_electric rail_fast ship" speed="22.22" length="0.30" width="3.75" shape="520.15,565.83 519.90,566.01"/>
    <lane id=":2.1_0_2" index="2" disallow="pedestrian tram rail_urban rail rail_electric rail_fast ship" speed="22.22" length="0.30" width="3.75" shape="517.94,562.80 517.70,562.98"/>
  </edge>
  <edge id=":22.21_0" function="internal">
    <lane id=":22.21_0_0" index="0" disallow="pedestrian tram rail_urban rail rail_electric rail_fast ship" speed="8.33" length="0.29" width="3.75" shape="238.53,642.78,7.48 238.53,642.49,7.49"/>
  </edge>
  <edge id=":26.25_0" function="internal">
    <lane id=":26.25_0_0" index="0" disallow="pedestrian tram rail_urban rail rail_electric rail_fast ship" speed="9.72" length="0.30" width="3.75" shape="476.66,420.42,8.47 476.94,420.52,8.46"/>
  </edge>
  <edge id=":3_0" function="internal">
    <lane id=":3_0_0" index="0" disallow="pedestrian tram rail_urban rail rail_electric rail_fast ship" speed="15.28" length="48.97" width="3.75" shape="927.93,1186.53,20.00 918.42,1177.29,20.00 907.24,1167.36,20.00 897.25,1158.89,20.00 891.33,1154.03,20.00"/>
  </edge>
  <edge id=":3_1" function="internal">
    <lane id=":3_1_0" index="0" disallow="pedestrian tram rail_urban rail rail_electric rail_fast ship" speed="22.22" length="49.07" width="3.75" shape="927.93,1186.53,20.00 894.24,1150.85,20.00"/>
    <lane id=":3_1_1" index="1" disallow="pedestrian tram rail_urban rail rail_electric rail_fast ship" speed="22.22" length="49.07" width="3.75" shape="930.66,1183.96,20.00 896.96,1148.28,20.00"/>
    <lane id=":3_1_2" index="2" disallow="pedestrian tram rail_urban rail rail_electric rail_fast ship" speed="22.22" length="49.07" width="3.75" shape="933.38,1181.38,20.00 899.69,1145.71,20.00"/>
  </edge>
  <edge id=":30.29_0" function="internal">
    <lane id=":30.29_0_0" index="0" disallow="pedestrian tram rail_urban rail rail_electric rail_fast ship" speed="9.72" length="0.29" width="3.75" shape="635.05,599.08,8.03 635.05,599.37,8.04"/>
  </edge>
  <edge id=":33.32_0" function="internal">
    <lane id=":33.32_0_0" index="0" disallow="pedestrian tram rail_urban rail rail_electric rail_fast ship" speed="13.89" length="0.30" width="3.75" shape="299.91,605.10,10.14 299.81,604.82,10.14"/>
  </edge>
  <edge id=":35.34_0" function="internal">
    <lane id=":35.34_0_0" index="0" disallow="pedestrian tram rail_urban rail rail_electric rail_fast ship" speed="11.11" length="0.29" width="3.75" shape="374.17,511.12,9.49 374.43,511.24,9.50"/>
  </edge>
  <edge id=":37.36_0" function="internal">
    <lane id=":37.36_0_0" index="0" disallow="pedestrian tram rail_urban rail rail_electric rail_fast ship" speed="16.67" length="0.30" width="3.75" shape="555.14,726.78,9.92 555.22,727.07,9.92"/>
  </edge>
  <edge id=":39.38_0" function="internal">
    <lane id=":39.38_0_0" index="0" disallow="pedestrian tram rail_urban rail rail_electric rail_fast ship" speed="19.44" length="0.30" width="3.75" shape="352.32,582.76,10.30 352.05,582.63,10.31"/>
  </edge>
  <edge id=":4_0" function="internal">
    <lane id=":4_0_0" index="0" disallow="pedestrian tram rail_urban rail rail_electric rail_fast ship" speed="15.28" length="95.27" width="3.75" shape="150.29,888.94,0.00 138.67,898.24,0.00 116.20,916.58,0.00 92.40,936.25,0.00 76.79,949.54"/>
  </edge>
  <edge id=":4_1" function="internal">
    <lane id=":4_1_0" index="0" disallow="pedestrian tram rail_urban rail rail_electric rail_fast ship" speed="22.22" length="95.01" width="3.75" shape="147.37,885.96 76.79,949.54"/>
    <lane id=":4_1_1" index="1" disallow="pedestrian tram rail_urban rail rail_electric rail_fast ship" speed="22.22" length="95.01" width="3.75" shape="144.87,883.17 74.28,946.76"/>
    <lane id=":4_1_2" index="2" disallow="pedestrian tram rail_urban rail rail_electric rail_fast ship" speed="22.22" length="95.01" width="3.75" shape="142.36,880.38 71.77,943.97"/>
  </edge>
  <edge id=":5_0" function="internal">
    <lane id=":5_0_0" index="0" disallow="pedestrian tram rail_urban rail rail_electric rail_fast ship" speed="8.33" length="3.00" width="3.75" shape="699.66,1020.17,14.37 697.15,1018.53,14.32"/>
  </edge>
  <edge id=":5_1" function="internal">
    <lane id=":5_1_0" index="0" disallow="pedestrian tram rail_urban rail rail_electric rail_fast ship" speed="11.11" length="3.00" width="3.75" shape="699.66,1020.17,14.37 697.15,1018.53,14.34"/>
  </edge>
  <edge id=":6_0" function="internal">
    <lane id=":6_0_0" index="0" disallow="pedestrian tram rail_urban rail rail_electric rail_fast ship" speed="15.28" length="39.07" width="3.75" shape="86.79,155.04,20.00 84.33,149.44,20.00 80.23,140.65,20.00 74.93,130.40,20.00 68.86,120.38,20.00"/>
  </edge>
  <edge id=":6_1" function="internal">
    <lane id=":6_1_0" index="0" disallow="pedestrian tram rail_urban rail rail_electric rail_fast ship" speed="22.22" length="38.51" width="3.75" shape="90.43,152.28,20.00 68.86,120.38,20.00"/>
    <lane id=":6_1_1" index="1" disallow="pedestrian tram rail_urban rail rail_electric rail_fast ship" speed="22.22" length="38.51" width="3.75" shape="93.54,150.18,20.00 71.97,118.28,20.00"/>
    <lane id=":6_1_2" index="2" disallow="pedestrian tram rail_urban rail rail_electric rail_fast ship" speed="22.22" length="38.51" width="3.75" shape="96.65,148.08,20.00 75.07,116.18,20.00"/>
  </edge>
  <edge id=":6.5_0" function="internal">
    <lane id=":6.5_0_0" index="0" disallow="pedestrian tram rail_urban rail rail_electric rail_fast ship" speed="22.22" length="0.30" width="3.75" shape="508.73,550.64 508.97,550.46"/>
    <lane id=":6.5_0_1" index="1" disallow="pedestrian tram rail_urban rail rail_electric rail_fast ship" speed="22.22" length="0.30" width="3.75" shape="510.93,553.68 511.18,553.50"/>
    <lane id=":6.5_0_2" index="2" disallow="pedestrian tram rail_urban rail rail_electric rail_fast ship" speed="22.22" length="0.30" width="3.75" shape="513.14,556.71 513.38,556.53"/>
  </edge>
  <edge id=":7_0" function="internal">
    <lane id=":7_0_0" index="0" disallow="pedestrian tram rail_urban rail rail_electric rail_fast ship" speed="8.33" length="3.04" width="3.75" shape="238.39,649.97,7.17 238.50,646.94,7.30"/>
  </edge>
  <edge id=":7_1" function="internal">
    <lane id=":7_1_0" index="0" disallow="pedestrian tram rail_urban rail rail_electric rail_fast ship" speed="9.72" length="3.04" width="3.75" shape="238.39,649.97,7.17 238.52,646.94,7.24"/>
  </edge>
  <edge id=":8_0" function="internal">
    <lane id=":8_0_0" index="0" disallow="pedestrian tram rail_urban rail rail_electric rail_fast ship" speed="15.97" length="95.64" width="3.75" shape="748.36,390.96,0.00 761.60,384.03,0.00 787.29,370.30,0.00 814.56,355.55,0.00 832.52,345.53"/>
  </edge>
  <edge id=":8_1" function="internal">
    <lane id=":8_1_0" index="0" disallow="pedestrian tram rail_urban rail rail_electric rail_fast ship" speed="22.22" length="95.37" width="3.75" shape="750.62,394.45 832.52,345.53"/>
    <lane id=":8_1_1" index="1" disallow="pedestrian tram rail_urban rail rail_electric rail_fast ship" speed="22.22" length="95.37" width="3.75" shape="752.56,397.66 834.43,348.76"/>
    <lane id=":8_1_2" index="2" disallow="pedestrian tram rail_urban rail rail_electric rail_fast ship" speed="22.22" length="95.37" width="3.75" shape="754.50,400.87 836.34,351.99"/>
  </edge>
  <edge id=":9_0" function="internal">
    <lane id=":9_0_0" index="0" disallow="pedestrian tram rail_urban rail rail_electric rail_fast ship" speed="9.72" length="3.00" width="3.75" shape="251.63,258.02,14.69 253.94,259.94,14.61"/>
  </edge>
  <edge id=":9_1" function="internal">
    <lane id=":9_1_0" index="0" disallow="pedestrian tram rail_urban rail rail_electric rail_fast ship" speed="13.19" length="3.00" width="3.75" shape="251.63,258.02,14.69 253.94,259.94,14.65"/>
  </edge>
  <edge id=":9.10_0" function="internal">
    <lane id=":9.10_0_0" index="0" disallow="pedestrian tram rail_urban rail rail_electric rail_fast ship" speed="22.22" length="0.30" width="3.75" shape="473.64,655.43,20.00 473.83,655.66,20.00"/>
    <lane id=":9.10_0_1" index="1" disallow="pedestrian tram rail_urban rail rail_electric rail_fast ship" speed="22.22" length="0.30" width="3.75" shape="470.72,657.78,20.00 470.91,658.02,20.00"/>
    <lane id=":9.10_0_2" index="2" disallow="pedestrian tram rail_urban rail rail_electric rail_fast ship" speed="22.22" length="0.30" width="3.75" shape="467.81,660.14,20.00 468.00,660.37,20.00"/>
  </edge>
  <edge id="-0" from="0.begin" to="0" priority="1" type="driving" shape="1102.73,202.87 1101.72,203.49 1100.69,204.12 1099.63,204.76 1098.55,205.42 1097.45,206.08 1096.33,206.76 1095.18,207.45 1094.02,208.15 1092.83,208.87 1091.62,209.59 1090.38,210.33 1089.13,211.08 1087.85,211.84 1086.55,212.61 1085.24,213.40 1083.90,214.19 1082.54,215.00 1081.16,215.82 1079.76,216.64 1078.34,217.48 1076.89,218.33 1075.43,219.20 1073.95,220.07 1072.45,220.95 1070.93,221.85 1069.39,222.75 1067.84,223.67 1066.26,224.59 1064.66,225.53 1063.05,226.47 1061.41,227.43 1059.76,228.40 1058.09,229.37 1056.40,230.36 1054.70,231.36 1052.97,232.36 1051.23,233.38 1049.47,234.41 1047.69,235.44 1045.90,236.49 1044.09,237.54 1042.26,238.61 1040.42,239.68 1038.56,240.76 1036.68,241.86 1034.79,242.96 1032.88,244.07 1030.95,245.19 1029.01,246.32 1027.05,247.45 1025.08,248.60 1023.09,249.75 1021.09,250.92 1019.07,252.09 1017.04,253.27 1014.99,254.46 1012.93,255.66 1010.85,256.86 1008.76,258.07 1006.66,259.30 1004.54,260.53 1002.41,261.76 1000.26,263.01 998.10,264.26 995.93,265.52 993.74,266.79 991.54,268.07 989.33,269.35 987.10,270.64 984.86,271.94 982.61,273.25 980.35,274.56 978.08,275.88">
    <lane id="-0_0" index="0" disallow="pedestrian tram rail_urban rail rail_electric rail_fast ship" speed="22.22" length="140.59" width="3.75" shape="1107.62,210.87 1106.60,211.49 1105.56,212.13 1104.50,212.78 1103.41,213.44 1102.30,214.11 1101.17,214.79 1100.02,215.48 1098.84,216.19 1097.65,216.91 1096.43,217.64 1095.19,218.38 1093.93,219.13 1092.65,219.89 1091.35,220.67 1090.03,221.46 1088.68,222.25 1087.32,223.06 1085.93,223.88 1084.53,224.71 1083.10,225.56 1081.66,226.41 1080.19,227.27 1078.71,228.15 1077.21,229.03 1075.68,229.93 1074.14,230.83 1072.58,231.75 1071.00,232.68 1069.40,233.62 1067.78,234.56 1066.15,235.52 1064.50,236.49 1062.82,237.47 1061.13,238.46 1059.42,239.45 1057.70,240.46 1055.96,241.48 1054.19,242.51 1052.42,243.54 1050.62,244.59 1048.81,245.64 1046.98,246.71 1045.14,247.78 1043.27,248.87 1041.39,249.96 1039.50,251.06 1037.59,252.17 1035.66,253.29 1033.72,254.42 1031.76,255.56 1029.79,256.71 1027.80,257.86 1025.80,259.02 1023.78,260.20 1021.75,261.38 1019.70,262.57 1017.64,263.76 1015.56,264.97 1013.47,266.18 1011.36,267.40 1009.24,268.63 1007.11,269.87 1004.96,271.12 1002.80,272.37 1000.63,273.63 998.44,274.90 996.24,276.18 994.03,277.46 991.81,278.75 989.57,280.05 987.32,281.36 986.24,281.98" type="driving"/>
    <lane id="-0_1" index="1" disallow="pedestrian tram rail_urban rail rail_electric rail_fast ship" speed="22.22" length="140.59" width="3.75" shape="1105.66,207.67 1104.65,208.29 1103.61,208.93 1102.55,209.57 1101.47,210.23 1100.36,210.90 1099.24,211.58 1098.09,212.27 1096.91,212.97 1095.72,213.69 1094.50,214.42 1093.27,215.16 1092.01,215.91 1090.73,216.67 1089.43,217.45 1088.11,218.23 1086.77,219.03 1085.41,219.84 1084.02,220.66 1082.62,221.49 1081.20,222.33 1079.75,223.18 1078.29,224.04 1076.81,224.92 1075.31,225.80 1073.78,226.70 1072.24,227.60 1070.68,228.52 1069.10,229.44 1067.51,230.38 1065.89,231.33 1064.25,232.28 1062.60,233.25 1060.93,234.23 1059.24,235.22 1057.53,236.22 1055.81,237.22 1054.07,238.24 1052.31,239.27 1050.53,240.30 1048.73,241.35 1046.92,242.40 1045.09,243.47 1043.25,244.54 1041.39,245.63 1039.51,246.72 1037.62,247.82 1035.70,248.93 1033.78,250.05 1031.84,251.18 1029.88,252.32 1027.91,253.46 1025.92,254.62 1023.92,255.78 1021.90,256.95 1019.86,258.13 1017.82,259.32 1015.75,260.52 1013.68,261.73 1011.59,262.94 1009.48,264.16 1007.36,265.39 1005.23,266.63 1003.08,267.87 1000.92,269.13 998.75,270.39 996.56,271.66 994.36,272.93 992.15,274.22 989.93,275.51 987.69,276.81 985.44,278.11 984.36,278.74" type="driving"/>
    <lane id="-0_2" index="2" disallow="pedestrian tram rail_urban rail rail_electric rail_fast ship" speed="22.22" length="140.59" width="3.75" shape="1103.71,204.47 1102.70,205.09 1101.66,205.72 1100.61,206.37 1099.53,207.02 1098.42,207.69 1097.30,208.37 1096.15,209.06 1094.98,209.76 1093.79,210.48 1092.58,211.20 1091.34,211.94 1090.09,212.69 1088.81,213.45 1087.51,214.22 1086.19,215.01 1084.85,215.80 1083.49,216.61 1082.11,217.43 1080.71,218.26 1079.29,219.10 1077.85,219.95 1076.39,220.81 1074.90,221.68 1073.40,222.57 1071.88,223.46 1070.34,224.37 1068.78,225.28 1067.21,226.21 1065.61,227.15 1063.99,228.09 1062.36,229.05 1060.71,230.02 1059.04,230.99 1057.35,231.98 1055.64,232.98 1053.92,233.98 1052.18,235.00 1050.42,236.03 1048.64,237.06 1046.85,238.11 1045.03,239.16 1043.21,240.23 1041.36,241.30 1039.50,242.39 1037.62,243.48 1035.73,244.58 1033.82,245.69 1031.89,246.81 1029.95,247.94 1028.00,249.08 1026.02,250.22 1024.03,251.38 1022.03,252.54 1020.01,253.71 1017.98,254.89 1015.93,256.08 1013.87,257.28 1011.79,258.48 1009.70,259.70 1007.60,260.92 1005.48,262.15 1003.35,263.38 1001.20,264.63 999.04,265.88 996.87,267.14 994.68,268.41 992.48,269.69 990.27,270.97 988.04,272.26 985.81,273.56 983.56,274.87 982.48,275.49" type="driving"/>
  </edge>
  <edge id="-1" from="0" to="2.1" priority="1" type="driving" shape="978.08,275.88 976.54,276.77 974.99,277.67 973.44,278.57 971.89,279.47 970.33,280.38 968.76,281.29 967.19,282.20 965.61,283.12 964.03,284.04 962.44,284.96 960.85,285.88 959.26,286.81 957.66,287.74 956.05,288.67 954.44,289.61 952.82,290.55 951.20,291.49 949.58,292.44 947.95,293.38 946.32,294.33 944.68,295.29 943.03,296.24 941.39,297.20 939.74,298.16 938.08,299.13 936.42,300.09 934.75,301.06 933.09,302.04 931.41,303.01 929.74,303.99 928.06,304.97 926.37,305.95 924.68,306.93 922.99,307.92 921.29,308.91 919.59,309.90 917.89,310.90 916.18,311.89 914.47,312.89 912.76,313.89 911.04,314.90 909.32,315.90 907.59,316.91 905.86,317.92 904.13,318.93 902.39,319.95 900.66,320.96 898.91,321.98 897.17,323.00 895.42,324.03 893.67,325.05 891.91,326.08 890.16,327.11 888.40,328.14 886.63,329.18 884.87,330.21 883.10,331.25 881.33,332.29 879.55,333.33 877.78,334.37 876.00,335.42 874.21,336.46 872.43,337.51 870.64,338.56 868.85,339.61 867.06,340.67 865.27,341.72 863.47,342.78 861.67,343.84 859.87,344.90 858.07,345.96 856.26,347.03 854.45,348.09 852.65,349.16 850.83,350.23 849.02,351.30 847.21,352.37 845.39,353.44 843.57,354.52 841.75,355.59 839.93,356.67 838.10,357.75 836.28,358.83 834.45,359.91 832.62,360.99 830.80,362.08 828.96,363.16 827.13,364.25 825.30,365.33 823.46,366.42 821.63,367.51 819.79,368.60 817.95,369.70 816.11,370.79 814.27,371.88 812.43,372.98 810.59,374.08 808.74,375.17 806.90,376.27 805.06,377.37 803.21,378.47 801.36,379.57 799.52,380.68 797.67,381.78 795.82,382.88 793.97,383.99 792.12,385.09 790.28,386.20 788.43,387.31 786.58,388.42 784.73,389.52 782.87,390.63 781.02,391.74 779.17,392.85 777.32,393.97 775.47,395.08 773.62,396.19 771.77,397.30 769.92,398.42 768.07,399.53 766.22,400.65 764.37,401.76 762.52,402.88 760.67,403.99 758.82,405.11 756.97,406.23 755.12,407.34 753.28,408.46 751.43,409.58 749.58,410.70 747.74,411.81 745.89,412.93 744.05,414.05 742.21,415.17 740.36,416.29 738.52,417.41 736.68,418.53 734.84,419.65 733.00,420.77 731.17,421.89 729.33,423.01 727.49,424.13 725.66,425.25 723.83,426.37 722.00,427.49 720.17,428.61 718.34,429.72 716.51,430.84 714.69,431.96 712.86,433.08 711.04,434.20 709.22,435.32 707.40,436.44 705.58,437.56 703.77,438.67 701.95,439.79 700.14,440.91 698.33,442.03 696.53,443.14 694.72,444.26 692.92,445.38 691.12,446.49 689.32,447.61 687.52,448.72 685.72,449.83 683.93,450.95 682.14,452.06 680.36,453.17 678.57,454.28 676.79,455.40 675.01,456.51 673.23,457.62 671.46,458.72 669.68,459.83 667.91,460.94 666.15,462.05 664.38,463.15 662.62,464.26 660.87,465.36 659.11,466.47 657.36,467.57 655.61,468.67 653.86,469.77 652.12,470.87 650.38,471.97 648.65,473.07 646.91,474.17 645.18,475.26 643.46,476.36 641.74,477.45 640.02,478.55 638.30,479.64 636.59,480.73 634.88,481.82 633.18,482.91 631.48,483.99 629.78,485.08 628.09,486.16 626.40,487.25 624.71,488.33 623.03,489.41 621.35,490.49 619.68,491.57 618.01,492.64 616.35,493.72 614.68,494.79 613.03,495.87 611.38,496.94 609.73,498.01 608.08,499.07 606.45,500.14 604.81,501.21 603.18,502.27 601.55,503.33 599.93,504.39 598.32,505.45 596.71,506.51 595.10,507.56 593.50,508.61 591.90,509.67 590.31,510.71 588.72,511.76 587.14,512.81 585.56,513.85 583.99,514.90 582.42,515.94 580.86,516.97 579.30,518.01 577.75,519.05 576.21,520.08 574.67,521.11 573.13,522.14 571.60,523.16 570.08,524.19 568.56,525.21 567.05,526.23 565.54,527.25 564.04,528.27 562.54,529.28 561.05,530.29 559.57,531.30 558.09,532.31 556.62,533.31 555.15,534.32 553.69,535.32 552.24,536.32 550.79,537.31 549.35,538.30 547.91,539.30 546.48,540.28 545.06,541.27 543.64,542.25 542.23,543.23 540.83,544.21 539.43,545.19 538.04,546.16 536.65,547.13 535.28,548.10 533.91,549.07 532.54,550.03 531.18,550.99 529.83,551.95 528.49,552.90 527.15,553.86 525.82,554.80 524.50,555.75 523.19,556.70 521.88,557.64 520.58,558.57 519.28,559.51 518.00,560.44 516.72,561.37">