<?xml version='1.0' encoding='UTF-8'?>
<!-- generated on 2022-09-05 16:58:51 by Eclipse SUMO netconvert Version 1.13.0
<configuration xmlns:xsi="http://www.w3.org/2001/XMLSchema-instance" xsi:noNamespaceSchemaLocation="http://sumo.dlr.de/xsd/netconvertConfiguration.xsd">

    <input>
        <opendrive-files value="map\classification\14\35237137\35237137.xodr"/>
    </input>

    <output>
        <output-file value="C:\Users\LinGe\AppData\Local\Temp\tmprshxmfoo\35237137.net.xml"/>
    </output>

    <processing>
        <geometry.max-grade.fix value="false"/>
    </processing>

    <tls_building>
        <tls.left-green.time value="0"/>
    </tls_building>

    <junctions>
        <rectangular-lane-cut value="true"/>
    </junctions>

    <report>
        <aggregate-warnings value="5"/>
    </report>

</configuration>
-->
<net xmlns:xsi="http://www.w3.org/2001/XMLSchema-instance" version="1.9" junctionCornerDetail="5" rectangularLaneCut="true" limitTurnSpeed="5.50" xsi:noNamespaceSchemaLocation="http://sumo.dlr.de/xsd/net_file.xsd">
  <location netOffset="1.56,101.26" convBoundary="0.00,0.00,1102.73,1302.51" origBoundary="-1.56,-101.26,1101.18,1201.26" projParameter="!"/>
  <type id="bidirectional" priority="1" speed="1.39" disallow="pedestrian tram rail_urban rail rail_electric rail_fast ship" width="3.65"/>
  <type id="border" priority="0" speed="1.39" disallow="all" discard="1" width="0.10"/>
  <type id="driving" priority="1" speed="13.89" disallow="pedestrian tram rail_urban rail rail_electric rail_fast ship" width="3.65"/>
  <type id="entry" priority="1" speed="22.22" disallow="pedestrian tram rail_urban rail rail_electric rail_fast ship" width="3.65"/>
  <type id="exit" priority="1" speed="22.22" disallow="pedestrian tram rail_urban rail rail_electric rail_fast ship" width="3.65"/>
  <type id="median" priority="0" speed="1.39" disallow="all" discard="1" width="0.10"/>
  <type id="mwyEntry" priority="1" speed="22.22" allow="private emergency authority army vip passenger hov taxi bus coach delivery truck trailer motorcycle evehicle custom1 custom2" width="3.65"/>
  <type id="mwyExit" priority="1" speed="22.22" allow="private emergency authority army vip passenger hov taxi bus coach delivery truck trailer motorcycle evehicle custom1 custom2" width="3.65"/>
  <type id="none" priority="0" speed="1.39" disallow="all" discard="1" width="1.00"/>
  <type id="offRamp" priority="1" speed="22.22" allow="private emergency authority army vip passenger hov taxi bus coach delivery truck trailer motorcycle evehicle custom1 custom2" width="3.65"/>
  <type id="onRamp" priority="1" speed="22.22" allow="private emergency authority army vip passenger hov taxi bus coach delivery truck trailer motorcycle evehicle custom1 custom2" width="3.65"/>
  <type id="parking" priority="1" speed="1.39" disallow="pedestrian tram rail_urban rail rail_electric rail_fast ship" width="2.50"/>
  <type id="rail" priority="3" speed="33.33" allow="rail_urban rail rail_electric rail_fast" width="3.65"/>
  <type id="restricted" priority="0" speed="13.89" disallow="all" width="3.65"/>
  <type id="roadWorks" priority="0" speed="1.39" allow="authority" width="3.65"/>
  <type id="shoulder" priority="0" speed="1.39" disallow="all" discard="1" width="1.00"/>
  <type id="special1" priority="1" speed="22.22" allow="custom1" discard="1" width="3.65"/>
  <type id="special2" priority="1" speed="22.22" allow="custom2" discard="1" width="3.65"/>
  <type id="special3" priority="1" speed="22.22" allow="custom1 custom2" discard="1" width="3.65"/>
  <type id="stop" priority="1" speed="13.89" disallow="pedestrian tram rail_urban rail rail_electric rail_fast ship" width="3.65"/>
  <type id="tram" priority="2" speed="13.89" allow="tram" width="3.65"/>
  <edge id=":0_0" function="internal">
    <lane id=":0_0_0" index="0" disallow="pedestrian tram rail_urban rail rail_electric rail_fast ship" speed="16.67" length="25.98" width="3.75" shape="526.14,702.88 519.14,708.15 513.98,713.09 510.41,717.53 508.19,721.29"/>
  </edge>
  <edge id=":0_1" function="internal">
    <lane id=":0_1_0" index="0" disallow="pedestrian tram rail_urban rail rail_electric rail_fast ship" speed="22.22" length="26.62" width="3.75" shape="526.14,702.88 503.95,717.65"/>
    <lane id=":0_1_1" index="1" disallow="pedestrian tram rail_urban rail rail_electric rail_fast ship" speed="22.22" length="26.62" width="3.75" shape="524.05,699.77 501.89,714.52"/>
    <lane id=":0_1_2" index="2" disallow="pedestrian tram rail_urban rail rail_electric rail_fast ship" speed="22.22" length="26.62" width="3.75" shape="521.95,696.66 499.82,711.39"/>
  </edge>
  <edge id=":1_0" function="internal">
    <lane id=":1_0_0" index="0" disallow="pedestrian tram rail_urban rail rail_electric rail_fast ship" speed="16.67" length="60.22" width="3.75" shape="171.33,891.04 184.08,883.10 199.73,872.63 213.66,862.97 221.27,857.42"/>
  </edge>
  <edge id=":1_1" function="internal">
    <lane id=":1_1_0" index="0" disallow="pedestrian tram rail_urban rail rail_electric rail_fast ship" speed="22.22" length="60.37" width="3.75" shape="171.33,891.04 223.68,861.03"/>
    <lane id=":1_1_1" index="1" disallow="pedestrian tram rail_urban rail rail_electric rail_fast ship" speed="22.22" length="60.37" width="3.75" shape="173.18,894.30 225.56,864.28"/>
    <lane id=":1_1_2" index="2" disallow="pedestrian tram rail_urban rail rail_electric rail_fast ship" speed="22.22" length="60.37" width="3.75" shape="175.04,897.56 227.43,867.53"/>
  </edge>
  <edge id=":13.12_0" function="internal">
    <lane id=":13.12_0_0" index="0" disallow="pedestrian tram rail_urban rail rail_electric rail_fast ship" speed="22.22" length="0.30" width="3.75" shape="653.20,742.41,20.00 653.01,742.18,20.00"/>
    <lane id=":13.12_0_1" index="1" disallow="pedestrian tram rail_urban rail rail_electric rail_fast ship" speed="22.22" length="0.30" width="3.75" shape="656.12,740.05,20.00 655.93,739.82,20.00"/>
    <lane id=":13.12_0_2" index="2" disallow="pedestrian tram rail_urban rail rail_electric rail_fast ship" speed="22.22" length="0.30" width="3.75" shape="659.04,737.70,20.00 658.84,737.46,20.00"/>
  </edge>
  <edge id=":17.16_0" function="internal">
    <lane id=":17.16_0_0" index="0" disallow="pedestrian tram rail_urban rail rail_electric rail_fast ship" speed="11.11" length="0.27" width="3.75" shape="568.14,789.90,9.98 568.40,789.93,10.01"/>
  </edge>
  <edge id=":19.18_0" function="internal">
    <lane id=":19.18_0_0" index="0" disallow="pedestrian tram rail_urban rail rail_electric rail_fast ship" speed="16.67" length="0.29" width="3.75" shape="1028.84,692.53,10.01 1028.87,692.24,10.00"/>
  </edge>
  <edge id=":2_0" function="internal">
    <lane id=":2_0_0" index="0" disallow="pedestrian tram rail_urban rail rail_electric rail_fast ship" speed="19.44" length="56.79" width="3.75" shape="677.96,736.93,20.00 687.32,747.99,19.95 699.10,761.13,19.90 709.80,772.72,19.84 715.96,779.12,19.81"/>
  </edge>
  <edge id=":2_1" function="internal">
    <lane id=":2_1_0" index="0" disallow="pedestrian tram rail_urban rail rail_electric rail_fast ship" speed="22.22" length="57.10" width="3.75" shape="677.96,736.93,20.00 712.85,782.26,20.00"/>
    <lane id=":2_1_1" index="1" disallow="pedestrian tram rail_urban rail rail_electric rail_fast ship" speed="22.22" length="57.10" width="3.75" shape="675.02,739.26,20.00 709.85,784.51,20.00"/>
    <lane id=":2_1_2" index="2" disallow="pedestrian tram rail_urban rail rail_electric rail_fast ship" speed="22.22" length="57.10" width="3.75" shape="672.09,741.60,20.00 706.85,786.76,20.00"/>
  </edge>
  <edge id=":2.1_0" function="internal">
    <lane id=":2.1_0_0" index="0" disallow="pedestrian tram rail_urban rail rail_electric rail_fast ship" speed="22.22" length="0.30" width="3.75" shape="573.76,669.63 573.51,669.81"/>
    <lane id=":2.1_0_1" index="1" disallow="pedestrian tram rail_urban rail rail_electric rail_fast ship" speed="22.22" length="0.30" width="3.75" shape="571.55,666.60 571.31,666.78"/>
    <lane id=":2.1_0_2" index="2" disallow="pedestrian tram rail_urban rail rail_electric rail_fast ship" speed="22.22" length="0.30" width="3.75" shape="569.34,663.57 569.10,663.74"/>
  </edge>
  <edge id=":21.20_0" function="internal">
    <lane id=":21.20_0_0" index="0" disallow="pedestrian tram rail_urban rail rail_electric rail_fast ship" speed="9.72" length="0.30" width="3.75" shape="516.89,337.30,10.18 517.18,337.35,10.17"/>
  </edge>
  <edge id=":23.22_0" function="internal">
    <lane id=":23.22_0_0" index="0" disallow="pedestrian tram rail_urban rail rail_electric rail_fast ship" speed="11.11" length="0.30" width="3.75" shape="327.08,539.29,9.08 327.05,538.99,9.10"/>
  </edge>
  <edge id=":3_0" function="internal">
    <lane id=":3_0_0" index="0" disallow="pedestrian tram rail_urban rail rail_electric rail_fast ship" speed="15.97" length="51.28" width="3.75" shape="86.81,77.59,20.00 96.44,87.24,19.97 108.02,97.91,19.93 118.43,107.11,19.89 124.55,112.29,19.87"/>
  </edge>
  <edge id=":3_1" function="internal">
    <lane id=":3_1_0" index="0" disallow="pedestrian tram rail_urban rail rail_electric rail_fast ship" speed="22.22" length="51.41" width="3.75" shape="86.81,77.59,20.00 121.59,115.45,20.00"/>
    <lane id=":3_1_1" index="1" disallow="pedestrian tram rail_urban rail rail_electric rail_fast ship" speed="22.22" length="51.41" width="3.75" shape="84.05,80.13,20.00 118.83,117.99,20.00"/>
    <lane id=":3_1_2" index="2" disallow="pedestrian tram rail_urban rail rail_electric rail_fast ship" speed="22.22" length="51.41" width="3.75" shape="81.29,82.67,20.00 116.07,120.53,20.00"/>
  </edge>
  <edge id=":4_0" function="internal">
    <lane id=":4_0_0" index="0" disallow="pedestrian tram rail_urban rail rail_electric rail_fast ship" speed="16.67" length="28.39" width="3.75" shape="645.70,743.52,20.00 644.91,738.99,20.00 642.80,733.09,20.00 639.06,726.12,20.00 633.39,718.36,20.00"/>
  </edge>
  <edge id=":4_1" function="internal">
    <lane id=":4_1_0" index="0" disallow="pedestrian tram rail_urban rail rail_electric rail_fast ship" speed="22.22" length="26.96" width="3.75" shape="650.53,739.11,20.00 633.39,718.36,20.00"/>
    <lane id=":4_1_1" index="1" disallow="pedestrian tram rail_urban rail rail_electric rail_fast ship" speed="22.22" length="26.96" width="3.75" shape="653.44,736.74,20.00 636.27,715.95,20.00"/>
    <lane id=":4_1_2" index="2" disallow="pedestrian tram rail_urban rail rail_electric rail_fast ship" speed="22.22" length="26.96" width="3.75" shape="656.35,734.38,20.00 639.14,713.55,20.00"/>
  </edge>
  <edge id=":5_0" function="internal">
    <lane id=":5_0_0" index="0" disallow="pedestrian tram rail_urban rail rail_electric rail_fast ship" speed="19.44" length="59.37" width="3.75" shape="744.97,537.80 737.26,542.96 723.61,552.52 708.60,563.39 696.82,572.50"/>
  </edge>
  <edge id=":5_1" function="internal">
    <lane id=":5_1_0" index="0" disallow="pedestrian tram rail_urban rail rail_electric rail_fast ship" speed="22.22" length="58.92" width="3.75" shape="741.93,534.54 696.82,572.50"/>
    <lane id=":5_1_1" index="1" disallow="pedestrian tram rail_urban rail rail_electric rail_fast ship" speed="22.22" length="58.92" width="3.75" shape="739.51,531.68 694.42,569.62"/>
    <lane id=":5_1_2" index="2" disallow="pedestrian tram rail_urban rail rail_electric rail_fast ship" speed="22.22" length="58.92" width="3.75" shape="737.08,528.83 692.02,566.73"/>
  </edge>
  <edge id=":6_0" function="internal">
    <lane id=":6_0_0" index="0" disallow="pedestrian tram rail_urban rail rail_electric rail_fast ship" speed="15.97" length="50.54" width="3.75" shape="977.08,291.06,0.12 983.63,286.65,0.10 994.72,278.72,0.07 1007.10,269.40,0.03 1017.53,260.80"/>
  </edge>
  <edge id=":6_1" function="internal">
    <lane id=":6_1_0" index="0" disallow="pedestrian tram rail_urban rail rail_electric rail_fast ship" speed="22.22" length="50.05" width="3.75" shape="980.32,294.27 1017.53,260.80"/>
    <lane id=":6_1_1" index="1" disallow="pedestrian tram rail_urban rail rail_electric rail_fast ship" speed="22.22" length="50.05" width="3.75" shape="982.82,297.06 1020.03,263.59"/>
    <lane id=":6_1_2" index="2" disallow="pedestrian tram rail_urban rail rail_electric rail_fast ship" speed="22.22" length="50.05" width="3.75" shape="985.33,299.85 1022.54,266.38"/>
  </edge>
  <edge id=":6.5_0" function="internal">
    <lane id=":6.5_0_0" index="0" disallow="pedestrian tram rail_urban rail rail_electric rail_fast ship" speed="22.22" length="0.30" width="3.75" shape="560.13,651.41 560.37,651.23"/>
    <lane id=":6.5_0_1" index="1" disallow="pedestrian tram rail_urban rail rail_electric rail_fast ship" speed="22.22" length="0.30" width="3.75" shape="562.34,654.44 562.58,654.27"/>
    <lane id=":6.5_0_2" index="2" disallow="pedestrian tram rail_urban rail rail_electric rail_fast ship" speed="22.22" length="0.30" width="3.75" shape="564.54,657.48 564.79,657.30"/>
  </edge>
  <edge id=":7_0" function="internal">
    <lane id=":7_0_0" index="0" disallow="pedestrian tram rail_urban rail rail_electric rail_fast ship" speed="16.67" length="73.87" width="3.75" shape="133.34,168.07,20.00 126.20,159.00,20.00 112.63,142.13,20.00 97.72,123.95,20.00 86.55,110.92,20.00"/>
  </edge>
  <edge id=":7_1" function="internal">
    <lane id=":7_1_0" index="0" disallow="pedestrian tram rail_urban rail rail_electric rail_fast ship" speed="22.22" length="73.58" width="3.75" shape="136.32,165.11,20.00 86.55,110.92,20.00"/>
    <lane id=":7_1_1" index="1" disallow="pedestrian tram rail_urban rail rail_electric rail_fast ship" speed="22.22" length="73.58" width="3.75" shape="139.08,162.58,20.00 89.31,108.38,20.00"/>
    <lane id=":7_1_2" index="2" disallow="pedestrian tram rail_urban rail rail_electric rail_fast ship" speed="22.22" length="73.58" width="3.75" shape="141.84,160.04,20.00 92.07,105.85,20.00"/>
  </edge>
  <edge id=":9.10_0" function="internal">
    <lane id=":9.10_0_0" index="0" disallow="pedestrian tram rail_urban rail rail_electric rail_fast ship" speed="22.22" length="0.30" width="3.75" shape="670.71,727.88,20.00 670.90,728.12,20.00"/>
    <lane id=":9.10_0_1" index="1" disallow="pedestrian tram rail_urban rail rail_electric rail_fast ship" speed="22.22" length="0.30" width="3.75" shape="667.79,730.24,20.00 667.98,730.47,20.00"/>
    <lane id=":9.10_0_2" index="2" disallow="pedestrian tram rail_urban rail rail_electric rail_fast ship" speed="22.22" length="0.30" width="3.75" shape="664.88,732.59,20.00 665.06,732.82,20.00"/>
  </edge>
  <edge id="-0" from="0.begin" to="5" priority="1" type="driving" shape="1102.73,202.87 1102.08,203.43 1101.42,204.00 1100.75,204.58 1100.06,205.17 1099.37,205.77 1098.67,206.39 1097.95,207.01 1097.23,207.64 1096.49,208.27 1095.75,208.92 1094.99,209.58 1094.23,210.25 1093.45,210.93 1092.67,211.62 1091.87,212.32 1091.06,213.02 1090.25,213.74 1089.42,214.47 1088.59,215.20 1087.74,215.95 1086.89,216.70 1086.02,217.46 1085.15,218.23 1084.27,219.01 1083.37,219.80 1082.47,220.60 1081.56,221.41 1080.64,222.23 1079.71,223.05 1078.77,223.89 1077.82,224.73 1076.86,225.58 1075.89,226.44 1074.92,227.31 1073.93,228.19 1072.94,229.07 1071.93,229.96 1070.92,230.87 1069.90,231.78 1068.87,232.70 1067.83,233.62 1066.78,234.56 1065.73,235.50 1064.66,236.45 1063.59,237.41 1062.51,238.38 1061.42,239.35 1060.32,240.33 1059.21,241.32 1058.10,242.32 1056.97,243.33 1055.84,244.34 1054.70,245.36 1053.56,246.39 1052.40,247.43 1051.24,248.47 1050.06,249.52 1048.88,250.58 1047.70,251.64 1046.50,252.72 1045.30,253.80 1044.09,254.88 1042.87,255.98 1041.64,257.08 1040.41,258.19 1039.17,259.30 1037.92,260.42 1036.66,261.55 1035.40,262.69 1034.13,263.83 1032.85,264.98 1031.57,266.13 1030.28,267.29 1028.98,268.46 1027.67,269.64 1026.36,270.82 1025.04,272.01 1023.71,273.20 1022.37,274.40 1021.03,275.61 1019.69,276.82 1018.33,278.04 1016.97,279.26 1015.60,280.49 1014.23,281.73 1012.85,282.97 1011.46,284.22 1010.06,285.47 1008.66,286.73 1007.26,288.00 1005.84,289.27 1004.43,290.55 1003.00,291.83 1001.57,293.12 1000.13,294.41 998.69,295.71 997.24,297.01 995.78,298.32 994.32,299.64 992.85,300.96 991.38,302.28 989.90,303.61 988.42,304.94 986.93,306.28 985.43,307.63 983.93,308.98 982.42,310.33 980.91,311.69 979.39,313.06 977.87,314.43 976.34,315.80 974.81,317.18 973.27,318.56 971.72,319.95 970.17,321.34 968.62,322.73 967.06,324.13 965.50,325.54 963.93,326.95 962.35,328.36 960.77,329.78 959.19,331.20 957.60,332.62 956.01,334.05 954.41,335.48 952.81,336.92 951.20,338.36 949.59,339.80 947.98,341.25 946.36,342.70 944.73,344.16 943.10,345.62 941.47,347.08 939.83,348.55 938.19,350.01 936.55,351.49 934.90,352.96 933.24,354.44 931.59,355.92 929.92,357.41 928.26,358.90 926.59,360.39 924.92,361.88 923.24,363.38 921.56,364.88 919.88,366.39 918.19,367.89 916.50,369.40 914.81,370.91 913.11,372.43 911.41,373.94 909.70,375.46 908.00,376.98 906.29,378.51 904.57,380.04 902.86,381.56 901.14,383.10 899.41,384.63 897.69,386.16 895.96,387.70 894.23,389.24 892.49,390.78 890.76,392.33 889.02,393.87 887.27,395.42 885.53,396.97 883.78,398.52 882.03,400.08 880.28,401.63 878.52,403.19 876.76,404.75 875.00,406.31 873.24,407.87 871.48,409.43 869.71,410.99 867.94,412.56 866.17,414.12 864.40,415.69 862.62,417.26 860.85,418.83 859.07,420.40 857.29,421.97 855.50,423.55 853.72,425.12 851.93,426.70 850.15,428.27 848.36,429.85 846.57,431.43 844.78,433.00 842.98,434.58 841.19,436.16 839.39,437.74 837.59,439.32 835.79,440.90 833.99,442.48 832.19,444.06 830.39,445.64 828.59,447.23 826.78,448.81 824.98,450.39 823.17,451.97 821.36,453.55 819.56,455.13 817.75,456.72 815.94,458.30 814.13,459.88 812.32,461.46 810.51,463.04 808.70,464.62 806.88,466.20 805.07,467.78 803.26,469.36 801.44,470.94 799.63,472.52 797.82,474.10 796.00,475.67 794.19,477.25 792.37,478.82 790.56,480.40 788.75,481.97 786.93,483.54 785.12,485.11 783.30,486.68 781.49,488.25 779.68,489.82 777.86,491.39 776.05,492.95 774.24,494.52 772.43,496.08 770.62,497.64 768.80,499.20 766.99,500.76 765.18,502.32 763.38,503.87 761.57,505.43 759.76,506.98 757.95,508.53 756.15,510.08 754.34,511.62 752.54,513.17 750.74,514.71 748.94,516.25 747.14,517.79 745.34,519.33 743.54,520.86 741.74,522.39 739.95,523.92 738.15,525.45 736.36,526.98 734.57,528.50 732.78,530.02 730.99,531.54 729.21,533.05 727.42,534.56 725.64,536.07 723.86,537.58 722.08,539.08 720.30,540.58 718.53,542.08 716.75,543.58 714.98,545.07 713.21,546.56 711.44,548.05 709.68,549.53 707.92,551.01 706.16,552.49 704.40,553.96 702.64,555.43 700.89,556.90 699.14,558.36 697.39,559.82 695.64,561.28 693.90,562.73">
    <lane id="-0_0" index="0" disallow="pedestrian tram rail_urban rail rail_electric rail_fast ship" speed="22.22" length="489.85" width="3.75" shape="1108.84,209.98 1108.20,210.54 1107.54,211.10 1106.87,211.68 1106.20,212.27 1105.51,212.86 1104.81,213.47 1104.10,214.08 1103.38,214.71 1102.65,215.34 1101.91,215.99 1101.16,216.65 1100.40,217.31 1099.63,217.99 1098.84,218.67 1098.05,219.36 1097.25,220.07 1096.44,220.78 1095.62,221.50 1094.78,222.24 1093.94,222.98 1093.09,223.73 1092.23,224.49 1091.36,225.26 1090.48,226.04 1089.59,226.83 1088.69,227.62 1087.78,228.43 1086.86,229.24 1085.93,230.07 1084.99,230.90 1084.04,231.74 1083.09,232.59 1082.12,233.45 1081.15,234.31 1080.16,235.19 1079.17,236.07 1078.17,236.96 1077.16,237.86 1076.14,238.77 1075.11,239.69 1074.07,240.62 1073.03,241.55 1071.97,242.49 1070.91,243.44 1069.84,244.40 1068.76,245.37 1067.67,246.34 1066.57,247.32 1065.47,248.31 1064.35,249.31 1063.23,250.31 1062.10,251.32 1060.96,252.35 1059.81,253.37 1058.66,254.41 1057.49,255.45 1056.32,256.50 1055.15,257.56 1053.96,258.62 1052.76,259.69 1051.56,260.77 1050.35,261.86 1049.13,262.95 1047.91,264.05 1046.68,265.16 1045.43,266.28 1044.19,267.40 1042.93,268.53 1041.67,269.66 1040.40,270.80 1039.12,271.95 1037.84,273.10 1036.54,274.27 1035.24,275.43 1033.94,276.61 1032.63,277.79 1031.30,278.98 1029.98,280.17 1028.64,281.37 1027.30,282.58 1025.95,283.79 1024.60,285.01 1023.24,286.23 1021.87,287.46 1020.50,288.70 1019.12,289.94 1017.73,291.19 1016.33,292.44 1014.93,293.70 1013.53,294.97 1012.11,296.24 1010.70,297.52 1009.27,298.80 1007.84,300.09 1006.40,301.38 1004.96,302.68 1003.51,303.98 1002.05,305.29 1000.59,306.61 999.12,307.93 997.65,309.25 996.17,310.58 994.68,311.92 993.19,313.26 991.70,314.60 990.20,315.95 988.69,317.31 987.18,318.67 985.66,320.03 984.13,321.40 982.61,322.77 981.07,324.15 979.53,325.53 977.99,326.92 976.44,328.31 974.88,329.71 973.32,331.11 971.76,332.51 970.19,333.92 968.61,335.34 967.04,336.75 965.45,338.17 963.86,339.60 962.27,341.03 960.67,342.46 959.07,343.90 957.46,345.34 955.85,346.79 954.23,348.23 952.61,349.69 950.99,351.14 949.36,352.60 947.72,354.06 946.09,355.53 944.44,357.00 942.80,358.47 941.15,359.95 939.49,361.43 937.84,362.91 936.17,364.40 934.51,365.89 932.84,367.38 931.16,368.88 929.49,370.37 927.81,371.87 926.12,373.38 924.43,374.89 922.74,376.40 921.05,377.91 919.35,379.42 917.65,380.94 915.94,382.46 914.23,383.98 912.52,385.51 910.81,387.04 909.09,388.57 907.37,390.10 905.65,391.63 903.92,393.17 902.19,394.71 900.46,396.25 898.72,397.79 896.98,399.34 895.24,400.88 893.50,402.43 891.75,403.98 890.00,405.54 888.25,407.09 886.50,408.65 884.74,410.20 882.98,411.76 881.22,413.32 879.46,414.88 877.69,416.45 875.92,418.01 874.15,419.58 872.38,421.15 870.61,422.72 868.83,424.29 867.05,425.86 865.27,427.43 863.49,429.00 861.71,430.58 859.92,432.15 858.13,433.73 856.35,435.31 854.56,436.88 852.76,438.46 850.97,440.04 849.18,441.62 847.38,443.20 845.58,444.78 843.78,446.36 841.98,447.94 840.18,449.53 838.38,451.11 836.57,452.69 834.77,454.27 832.96,455.86 831.16,457.44 829.35,459.02 827.54,460.61 825.73,462.19 823.92,463.77 822.11,465.36 820.30,466.94 818.48,468.52 816.67,470.11 814.86,471.69 813.04,473.27 811.23,474.85 809.41,476.43 807.60,478.01 805.78,479.59 803.97,481.17 802.15,482.75 800.34,484.33 798.52,485.90 796.70,487.48 794.89,489.05 793.07,490.63 791.25,492.20 789.44,493.77 787.62,495.34 785.81,496.91 783.99,498.48 782.18,500.05 780.36,501.62 778.55,503.18 776.74,504.74 774.92,506.31 773.11,507.87 771.30,509.43 769.49,510.98 767.68,512.54 765.87,514.09 764.06,515.65 762.25,517.20 760.44,518.74 758.64,520.29 756.83,521.84 755.03,523.38 753.23,524.92 751.42,526.46 749.62,527.99 747.82,529.53 746.03,531.06 744.23,532.59 742.43,534.12 741.93,534.54" type="driving"/>
    <lane id="-0_1" index="1" disallow="pedestrian tram rail_urban rail rail_electric rail_fast ship" speed="22.22" length="489.85" width="3.75" shape="1106.40,207.14 1105.75,207.70 1105.09,208.26 1104.42,208.84 1103.74,209.43 1103.05,210.03 1102.35,210.63 1101.64,211.25 1100.92,211.88 1100.19,212.52 1099.44,213.16 1098.69,213.82 1097.93,214.49 1097.16,215.16 1096.37,215.85 1095.58,216.55 1094.78,217.25 1093.96,217.97 1093.14,218.69 1092.30,219.42 1091.46,220.17 1090.61,220.92 1089.75,221.68 1088.87,222.45 1087.99,223.23 1087.10,224.02 1086.20,224.81 1085.29,225.62 1084.37,226.44 1083.44,227.26 1082.50,228.09 1081.55,228.93 1080.60,229.78 1079.63,230.64 1078.65,231.51 1077.67,232.39 1076.68,233.27 1075.67,234.16 1074.66,235.07 1073.64,235.97 1072.61,236.89 1071.58,237.82 1070.53,238.75 1069.47,239.70 1068.41,240.65 1067.34,241.60 1066.26,242.57 1065.17,243.54 1064.07,244.53 1062.96,245.52 1061.85,246.51 1060.73,247.52 1059.60,248.53 1058.46,249.55 1057.31,250.58 1056.15,251.62 1054.99,252.66 1053.82,253.71 1052.64,254.77 1051.45,255.83 1050.26,256.90 1049.06,257.98 1047.85,259.07 1046.63,260.16 1045.40,261.26 1044.17,262.37 1042.93,263.49 1041.68,264.61 1040.42,265.74 1039.16,266.87 1037.89,268.01 1036.61,269.16 1035.33,270.32 1034.04,271.48 1032.74,272.65 1031.43,273.82 1030.12,275.00 1028.80,276.19 1027.47,277.38 1026.14,278.58 1024.79,279.79 1023.45,281.00 1022.09,282.22 1020.73,283.44 1019.36,284.67 1017.99,285.91 1016.61,287.15 1015.22,288.40 1013.83,289.66 1012.43,290.92 1011.02,292.18 1009.61,293.45 1008.19,294.73 1006.76,296.01 1005.33,297.30 1003.89,298.59 1002.45,299.89 1001.00,301.19 999.54,302.50 998.08,303.82 996.61,305.14 995.14,306.46 993.66,307.79 992.18,309.13 990.69,310.47 989.19,311.81 987.69,313.16 986.18,314.52 984.67,315.88 983.15,317.24 981.63,318.61 980.10,319.98 978.57,321.36 977.03,322.74 975.48,324.13 973.93,325.52 972.38,326.92 970.82,328.32 969.25,329.72 967.68,331.13 966.11,332.55 964.53,333.96 962.95,335.38 961.36,336.81 959.77,338.24 958.17,339.67 956.56,341.11 954.96,342.55 953.35,343.99 951.73,345.44 950.11,346.89 948.48,348.35 946.86,349.81 945.22,351.27 943.58,352.74 941.94,354.21 940.30,355.68 938.65,357.16 936.99,358.63 935.34,360.12 933.67,361.60 932.01,363.09 930.34,364.58 928.67,366.08 926.99,367.58 925.31,369.08 923.62,370.58 921.94,372.09 920.25,373.60 918.55,375.11 916.85,376.62 915.15,378.14 913.45,379.66 911.74,381.18 910.03,382.71 908.31,384.24 906.60,385.77 904.88,387.30 903.15,388.83 901.43,390.37 899.70,391.91 897.96,393.45 896.23,394.99 894.49,396.53 892.75,398.08 891.01,399.63 889.26,401.18 887.51,402.73 885.76,404.28 884.01,405.84 882.25,407.40 880.49,408.96 878.73,410.52 876.97,412.08 875.21,413.64 873.44,415.21 871.67,416.77 869.90,418.34 868.12,419.91 866.35,421.48 864.57,423.05 862.79,424.62 861.01,426.19 859.23,427.77 857.44,429.34 855.65,430.92 853.87,432.49 852.08,434.07 850.29,435.65 848.49,437.23 846.70,438.80 844.90,440.38 843.10,441.97 841.31,443.55 839.51,445.13 837.71,446.71 835.90,448.29 834.10,449.87 832.30,451.46 830.49,453.04 828.68,454.62 826.88,456.20 825.07,457.79 823.26,459.37 821.45,460.95 819.64,462.53 817.83,464.12 816.02,465.70 814.21,467.28 812.39,468.86 810.58,470.44 808.77,472.02 806.95,473.60 805.14,475.18 803.32,476.76 801.51,478.34 799.69,479.92 797.88,481.49 796.06,483.07 794.25,484.65 792.43,486.22 790.62,487.79 788.80,489.37 786.98,490.94 785.17,492.51 783.36,494.08 781.54,495.65 779.73,497.21 777.91,498.78 776.10,500.34 774.29,501.90 772.48,503.47 770.66,505.02 768.85,506.58 767.04,508.14 765.23,509.69 763.42,511.25 761.62,512.80 759.81,514.35 758.00,515.90 756.20,517.44 754.39,518.99 752.59,520.53 750.79,522.07 748.99,523.61 747.19,525.14 745.39,526.67 743.59,528.21 741.80,529.73 740.00,531.26 739.51,531.68" type="driving"/>
    <lane id="-0_2" index="2" disallow="pedestrian tram rail_urban rail rail_electric rail_fast ship" speed="22.22" length="489.85" width="3.75" shape="1103.95,204.30 1103.30,204.86 1102.64,205.42 1101.97,206.00 1101.29,206.59 1100.60,207.19 1099.90,207.80 1099.18,208.42 1098.46,209.05 1097.72,209.69 1096.98,210.34 1096.23,211.00 1095.46,211.66 1094.69,212.34 1093.90,213.03 1093.11,213.73 1092.30,214.43 1091.49,215.15 1090.66,215.87 1089.83,216.61 1088.98,217.35 1088.13,218.10 1087.26,218.87 1086.39,219.64 1085.51,220.42 1084.62,221.21 1083.71,222.01 1082.80,222.81 1081.88,223.63 1080.95,224.45 1080.01,225.29 1079.06,226.13 1078.11,226.98 1077.14,227.84 1076.16,228.71 1075.18,229.59 1074.18,230.47 1073.18,231.36 1072.17,232.27 1071.15,233.18 1070.12,234.09 1069.08,235.02 1068.03,235.96 1066.98,236.90 1065.91,237.85 1064.84,238.81 1063.76,239.77 1062.67,240.75 1061.57,241.73 1060.46,242.72 1059.35,243.72 1058.23,244.73 1057.09,245.74 1055.95,246.76 1054.81,247.79 1053.65,248.82 1052.49,249.87 1051.32,250.92 1050.14,251.98 1048.95,253.04 1047.75,254.11 1046.55,255.19 1045.34,256.28 1044.12,257.37 1042.90,258.47 1041.66,259.58 1040.42,260.70 1039.17,261.82 1037.92,262.95 1036.65,264.08 1035.38,265.22 1034.11,266.37 1032.82,267.53 1031.53,268.69 1030.23,269.86 1028.92,271.03 1027.61,272.21 1026.29,273.40 1024.96,274.59 1023.63,275.79 1022.29,277.00 1020.94,278.21 1019.58,279.43 1018.22,280.66 1016.86,281.89 1015.48,283.12 1014.10,284.37 1012.71,285.61 1011.32,286.87 1009.92,288.13 1008.51,289.39 1007.10,290.66 1005.68,291.94 1004.25,293.22 1002.82,294.51 1001.38,295.80 999.94,297.10 998.49,298.41 997.04,299.72 995.57,301.03 994.11,302.35 992.63,303.67 991.15,305.00 989.67,306.34 988.18,307.68 986.68,309.02 985.18,310.37 983.68,311.73 982.16,313.09 980.65,314.45 979.12,315.82 977.59,317.19 976.06,318.57 974.52,319.95 972.98,321.34 971.43,322.73 969.87,324.13 968.31,325.53 966.75,326.93 965.18,328.34 963.61,329.75 962.03,331.17 960.44,332.59 958.85,334.02 957.26,335.45 955.66,336.88 954.06,338.32 952.45,339.76 950.84,341.20 949.23,342.65 947.61,344.10 945.98,345.56 944.35,347.01 942.72,348.48 941.08,349.94 939.44,351.41 937.80,352.88 936.15,354.36 934.49,355.84 932.84,357.32 931.17,358.81 929.51,360.30 927.84,361.79 926.17,363.28 924.49,364.78 922.81,366.28 921.13,367.78 919.44,369.29 917.75,370.80 916.06,372.31 914.36,373.83 912.66,375.34 910.95,376.86 909.24,378.38 907.53,379.91 905.82,381.44 904.10,382.96 902.38,384.50 900.66,386.03 898.93,387.57 897.20,389.10 895.47,390.64 893.74,392.19 892.00,393.73 890.26,395.28 888.52,396.82 886.77,398.37 885.02,399.93 883.27,401.48 881.52,403.03 879.77,404.59 878.01,406.15 876.25,407.71 874.48,409.27 872.72,410.83 870.95,412.40 869.18,413.96 867.41,415.53 865.64,417.10 863.86,418.67 862.09,420.24 860.31,421.81 858.53,423.38 856.75,424.95 854.96,426.53 853.17,428.10 851.39,429.68 849.60,431.26 847.81,432.83 846.01,434.41 844.22,435.99 842.43,437.57 840.63,439.15 838.83,440.73 837.03,442.31 835.23,443.89 833.43,445.47 831.63,447.05 829.82,448.64 828.02,450.22 826.21,451.80 824.41,453.38 822.60,454.96 820.79,456.55 818.98,458.13 817.17,459.71 815.36,461.29 813.55,462.87 811.74,464.45 809.93,466.04 808.12,467.62 806.30,469.20 804.49,470.78 802.67,472.35 800.86,473.93 799.05,475.51 797.23,477.09 795.42,478.66 793.60,480.24 791.79,481.81 789.97,483.39 788.16,484.96 786.34,486.53 784.53,488.10 782.72,489.67 780.90,491.24 779.09,492.81 777.28,494.37 775.46,495.94 773.65,497.50 771.84,499.06 770.03,500.62 768.22,502.18 766.41,503.74 764.60,505.30 762.79,506.85 760.98,508.40 759.17,509.95 757.37,511.50 755.56,513.05 753.76,514.59 751.96,516.14 750.15,517.68 748.35,519.22 746.55,520.75 744.76,522.29 742.96,523.82 741.16,525.35 739.37,526.88 737.58,528.40 737.08,528.83" type="driving"/>
  </edge>