<?xml version='1.0' encoding='UTF-8'?>
<!-- generated on 2022-09-05 15:37:02 by Eclipse SUMO netconvert Version 1.13.0
<configuration xmlns:xsi="http://www.w3.org/2001/XMLSchema-instance" xsi:noNamespaceSchemaLocation="http://sumo.dlr.de/xsd/netconvertConfiguration.xsd">

    <input>
        <opendrive-files value="map\classification\14\45615655\45615655.xodr"/>
    </input>

    <output>
        <output-file value="C:\Users\LinGe\AppData\Local\Temp\tmpc0tm335f\45615655.net.xml"/>
    </output>

    <processing>
        <geometry.max-grade.fix value="false"/>
    </processing>

    <tls_building>
        <tls.left-green.time value="0"/>
    </tls_building>

    <junctions>
        <rectangular-lane-cut value="true"/>
    </junctions>

    <report>
        <aggregate-warnings value="5"/>
    </report>

</configuration>
-->
<net xmlns:xsi="http://www.w3.org/2001/XMLSchema-instance" version="1.9" junctionCornerDetail="5" rectangularLaneCut="true" limitTurnSpeed="5.50" xsi:noNamespaceSchemaLocation="http://sumo.dlr.de/xsd/net_file.xsd">
  <location netOffset="1.56,101.26" convBoundary="0.00,0.00,1102.73,1302.51" origBoundary="-1.56,-101.26,1101.18,1201.26" projParameter="!"/>
  <type id="bidirectional" priority="1" speed="1.39" disallow="pedestrian tram rail_urban rail rail_electric rail_fast ship" width="3.65"/>
  <type id="border" priority="0" speed="1.39" disallow="all" discard="1" width="0.10"/>
  <type id="driving" priority="1" speed="13.89" disallow="pedestrian tram rail_urban rail rail_electric rail_fast ship" width="3.65"/>
  <type id="entry" priority="1" speed="22.22" disallow="pedestrian tram rail_urban rail rail_electric rail_fast ship" width="3.65"/>
  <type id="exit" priority="1" speed="22.22" disallow="pedestrian tram rail_urban rail rail_electric rail_fast ship" width="3.65"/>
  <type id="median" priority="0" speed="1.39" disallow="all" discard="1" width="0.10"/>
  <type id="mwyEntry" priority="1" speed="22.22" allow="private emergency authority army vip passenger hov taxi bus coach delivery truck trailer motorcycle evehicle custom1 custom2" width="3.65"/>
  <type id="mwyExit" priority="1" speed="22.22" allow="private emergency authority army vip passenger hov taxi bus coach delivery truck trailer motorcycle evehicle custom1 custom2" width="3.65"/>
  <type id="none" priority="0" speed="1.39" disallow="all" discard="1" width="1.00"/>
  <type id="offRamp" priority="1" speed="22.22" allow="private emergency authority army vip passenger hov taxi bus coach delivery truck trailer motorcycle evehicle custom1 custom2" width="3.65"/>
  <type id="onRamp" priority="1" speed="22.22" allow="private emergency authority army vip passenger hov taxi bus coach delivery truck trailer motorcycle evehicle custom1 custom2" width="3.65"/>
  <type id="parking" priority="1" speed="1.39" disallow="pedestrian tram rail_urban rail rail_electric rail_fast ship" width="2.50"/>
  <type id="rail" priority="3" speed="33.33" allow="rail_urban rail rail_electric rail_fast" width="3.65"/>
  <type id="restricted" priority="0" speed="13.89" disallow="all" width="3.65"/>
  <type id="roadWorks" priority="0" speed="1.39" allow="authority" width="3.65"/>
  <type id="shoulder" priority="0" speed="1.39" disallow="all" discard="1" width="1.00"/>
  <type id="special1" priority="1" speed="22.22" allow="custom1" discard="1" width="3.65"/>
  <type id="special2" priority="1" speed="22.22" allow="custom2" discard="1" width="3.65"/>
  <type id="special3" priority="1" speed="22.22" allow="custom1 custom2" discard="1" width="3.65"/>
  <type id="stop" priority="1" speed="13.89" disallow="pedestrian tram rail_urban rail rail_electric rail_fast ship" width="3.65"/>
  <type id="tram" priority="2" speed="13.89" allow="tram" width="3.65"/>
  <edge id=":0_0" function="internal">
    <lane id=":0_0_0" index="0" disallow="pedestrian tram rail_urban rail rail_electric rail_fast ship" speed="18.06" length="59.64" width="3.75" shape="479.03,730.01 466.77,738.54 451.79,749.61 438.47,759.78 431.19,765.59"/>
  </edge>
  <edge id=":0_1" function="internal">
    <lane id=":0_1_0" index="0" disallow="pedestrian tram rail_urban rail rail_electric rail_fast ship" speed="22.22" length="59.89" width="3.75" shape="479.03,730.01 428.44,762.16"/>
    <lane id=":0_1_1" index="1" disallow="pedestrian tram rail_urban rail rail_electric rail_fast ship" speed="22.22" length="59.89" width="3.75" shape="477.00,726.86 426.45,758.98"/>
    <lane id=":0_1_2" index="2" disallow="pedestrian tram rail_urban rail rail_electric rail_fast ship" speed="22.22" length="59.89" width="3.75" shape="474.96,723.71 424.46,755.80"/>
  </edge>
  <edge id=":1_0" function="internal">
    <lane id=":1_0_0" index="0" disallow="pedestrian tram rail_urban rail rail_electric rail_fast ship" speed="15.28" length="43.21" width="3.75" shape="75.20,944.94 85.61,938.28,0.04 96.13,930.69,0.08 104.93,923.90,0.12 110.16,919.62,0.14"/>
  </edge>
  <edge id=":1_1" function="internal">
    <lane id=":1_1_0" index="0" disallow="pedestrian tram rail_urban rail rail_electric rail_fast ship" speed="22.22" length="43.37" width="3.75" shape="75.20,944.94 112.76,923.26"/>
    <lane id=":1_1_1" index="1" disallow="pedestrian tram rail_urban rail rail_electric rail_fast ship" speed="22.22" length="43.37" width="3.75" shape="77.07,948.19 114.63,926.51"/>
    <lane id=":1_1_2" index="2" disallow="pedestrian tram rail_urban rail rail_electric rail_fast ship" speed="22.22" length="43.37" width="3.75" shape="78.95,951.43 116.51,929.76"/>
  </edge>
  <edge id=":14.13_0" function="internal">
    <lane id=":14.13_0_0" index="0" disallow="pedestrian tram rail_urban rail rail_electric rail_fast ship" speed="22.22" length="0.30" width="3.75" shape="433.59,649.24,20.00 433.40,649.00,20.00"/>
    <lane id=":14.13_0_1" index="1" disallow="pedestrian tram rail_urban rail rail_electric rail_fast ship" speed="22.22" length="0.30" width="3.75" shape="436.51,646.88,20.00 436.32,646.64,20.00"/>
    <lane id=":14.13_0_2" index="2" disallow="pedestrian tram rail_urban rail rail_electric rail_fast ship" speed="22.22" length="0.30" width="3.75" shape="439.42,644.52,20.00 439.24,644.29,20.00"/>
  </edge>
  <edge id=":17.16_0" function="internal">
    <lane id=":17.16_0_0" index="0" disallow="pedestrian tram rail_urban rail rail_electric rail_fast ship" speed="13.89" length="0.29" width="3.75" shape="423.94,969.16,9.26 424.18,969.33,9.28"/>
  </edge>
  <edge id=":19.18_0" function="internal">
    <lane id=":19.18_0_0" index="0" disallow="pedestrian tram rail_urban rail rail_electric rail_fast ship" speed="16.67" length="0.29" width="3.75" shape="884.99,765.01,10.29 885.11,764.74,10.27"/>
  </edge>
  <edge id=":2_0" function="internal">
    <lane id=":2_0_0" index="0" disallow="pedestrian tram rail_urban rail rail_electric rail_fast ship" speed="19.44" length="56.17" width="3.75" shape="589.16,792.36,20.00 599.27,802.60,20.00 611.97,814.55,20.00 623.52,824.98,20.00 630.20,830.68,20.00"/>
  </edge>
  <edge id=":2_1" function="internal">
    <lane id=":2_1_0" index="0" disallow="pedestrian tram rail_urban rail rail_electric rail_fast ship" speed="22.22" length="56.35" width="3.75" shape="589.16,792.36,20.00 627.19,833.91,20.00"/>
    <lane id=":2_1_1" index="1" disallow="pedestrian tram rail_urban rail rail_electric rail_fast ship" speed="22.22" length="56.35" width="3.75" shape="586.39,794.88,20.00 624.43,836.45,20.00"/>
    <lane id=":2_1_2" index="2" disallow="pedestrian tram rail_urban rail rail_electric rail_fast ship" speed="22.22" length="56.35" width="3.75" shape="583.61,797.41,20.00 621.67,838.99,20.00"/>
  </edge>
  <edge id=":2.1_0" function="internal">
    <lane id=":2.1_0_0" index="0" disallow="pedestrian tram rail_urban rail rail_electric rail_fast ship" speed="22.22" length="0.30" width="3.75" shape="576.39,663.82 576.14,664.00"/>
    <lane id=":2.1_0_1" index="1" disallow="pedestrian tram rail_urban rail rail_electric rail_fast ship" speed="22.22" length="0.30" width="3.75" shape="574.18,660.78 573.94,660.96"/>
    <lane id=":2.1_0_2" index="2" disallow="pedestrian tram rail_urban rail rail_electric rail_fast ship" speed="22.22" length="0.30" width="3.75" shape="571.97,657.75 571.74,657.93"/>
  </edge>
  <edge id=":21.20_0" function="internal">
    <lane id=":21.20_0_0" index="0" disallow="pedestrian tram rail_urban rail rail_electric rail_fast ship" speed="19.44" length="0.30" width="3.75" shape="519.96,412.16,10.70 520.26,412.19,10.69"/>
  </edge>
  <edge id=":23.22_0" function="internal">
    <lane id=":23.22_0_0" index="0" disallow="pedestrian tram rail_urban rail rail_electric rail_fast ship" speed="8.33" length="0.29" width="3.75" shape="289.00,664.07,7.80 289.01,663.78,7.81"/>
  </edge>
  <edge id=":3_0" function="internal">
    <lane id=":3_0_0" index="0" disallow="pedestrian tram rail_urban rail rail_electric rail_fast ship" speed="20.83" length="38.16" width="3.75" shape="171.13,236.33,20.00 177.99,245.64,19.97 185.27,254.19,19.94 191.68,261.05,19.91 195.93,265.25,19.90"/>
  </edge>
  <edge id=":3_1" function="internal">
    <lane id=":3_1_0" index="0" disallow="pedestrian tram rail_urban rail rail_electric rail_fast ship" speed="22.22" length="38.35" width="3.75" shape="171.13,236.33,20.00 192.40,268.22,20.00"/>
    <lane id=":3_1_1" index="1" disallow="pedestrian tram rail_urban rail rail_electric rail_fast ship" speed="22.22" length="38.35" width="3.75" shape="168.00,238.41,20.00 189.28,270.31,20.00"/>
    <lane id=":3_1_2" index="2" disallow="pedestrian tram rail_urban rail rail_electric rail_fast ship" speed="22.22" length="38.35" width="3.75" shape="164.88,240.48,20.00 186.16,272.39,20.00"/>
  </edge>
  <edge id=":4_0" function="internal">
    <lane id=":4_0_0" index="0" disallow="pedestrian tram rail_urban rail rail_electric rail_fast ship" speed="18.06" length="43.70" width="3.75" shape="597.68,842.61,20.00 594.12,836.78,20.00 587.77,827.45,20.00 579.96,816.88,20.00 572.01,807.31,20.00"/>
  </edge>
  <edge id=":4_1" function="internal">
    <lane id=":4_1_0" index="0" disallow="pedestrian tram rail_urban rail rail_electric rail_fast ship" speed="22.22" length="43.04" width="3.75" shape="601.06,839.08,20.00 572.01,807.31,20.00"/>
    <lane id=":4_1_1" index="1" disallow="pedestrian tram rail_urban rail rail_electric rail_fast ship" speed="22.22" length="43.04" width="3.75" shape="603.83,836.55,20.00 574.78,804.78,20.00"/>
    <lane id=":4_1_2" index="2" disallow="pedestrian tram rail_urban rail rail_electric rail_fast ship" speed="22.22" length="43.04" width="3.75" shape="606.59,834.01,20.00 577.56,802.26,20.00"/>
  </edge>
  <edge id=":5_0" function="internal">
    <lane id=":5_0_0" index="0" disallow="pedestrian tram rail_urban rail rail_electric rail_fast ship" speed="19.44" length="42.17" width="3.75" shape="730.55,547.62,0.15 724.74,550.72,0.13 715.53,556.28,0.09 705.00,563.23,0.04 695.24,570.55"/>
  </edge>
  <edge id=":5_1" function="internal">
    <lane id=":5_1_0" index="0" disallow="pedestrian tram rail_urban rail rail_electric rail_fast ship" speed="22.22" length="41.46" width="3.75" shape="727.15,544.03 695.24,570.55"/>
    <lane id=":5_1_1" index="1" disallow="pedestrian tram rail_urban rail rail_electric rail_fast ship" speed="22.22" length="41.46" width="3.75" shape="724.74,541.16 692.85,567.66"/>
    <lane id=":5_1_2" index="2" disallow="pedestrian tram rail_urban rail rail_electric rail_fast ship" speed="22.22" length="41.46" width="3.75" shape="722.33,538.28 690.47,564.77"/>
  </edge>
  <edge id=":6_0" function="internal">
    <lane id=":6_0_0" index="0" disallow="pedestrian tram rail_urban rail rail_electric rail_fast ship" speed="20.83" length="48.33" width="3.75" shape="917.67,342.89,0.15 924.00,338.75,0.13 934.57,331.41,0.09 946.44,322.68,0.04 956.66,314.39"/>
  </edge>
  <edge id=":6_1" function="internal">
    <lane id=":6_1_0" index="0" disallow="pedestrian tram rail_urban rail rail_electric rail_fast ship" speed="22.22" length="47.82" width="3.75" shape="920.90,346.13 956.66,314.39"/>
    <lane id=":6_1_1" index="1" disallow="pedestrian tram rail_urban rail rail_electric rail_fast ship" speed="22.22" length="47.82" width="3.75" shape="923.39,348.93 959.15,317.19"/>
    <lane id=":6_1_2" index="2" disallow="pedestrian tram rail_urban rail rail_electric rail_fast ship" speed="22.22" length="47.82" width="3.75" shape="925.87,351.74 961.64,319.99"/>
  </edge>
  <edge id=":6.5_0" function="internal">
    <lane id=":6.5_0_0" index="0" disallow="pedestrian tram rail_urban rail rail_electric rail_fast ship" speed="22.22" length="0.30" width="3.75" shape="562.77,645.59 563.01,645.42"/>
    <lane id=":6.5_0_1" index="1" disallow="pedestrian tram rail_urban rail rail_electric rail_fast ship" speed="22.22" length="0.30" width="3.75" shape="564.97,648.63 565.21,648.45"/>
    <lane id=":6.5_0_2" index="2" disallow="pedestrian tram rail_urban rail rail_electric rail_fast ship" speed="22.22" length="0.30" width="3.75" shape="567.17,651.66 567.42,651.48"/>
  </edge>
  <edge id=":7_0" function="internal">
    <lane id=":7_0_0" index="0" disallow="pedestrian tram rail_urban rail rail_electric rail_fast ship" speed="15.28" length="130.80" width="3.75" shape="154.98,260.35,20.00 86.09,149.16,20.00"/>
  </edge>
  <edge id=":7_1" function="internal">
    <lane id=":7_1_0" index="0" disallow="pedestrian tram rail_urban rail rail_electric rail_fast ship" speed="22.22" length="130.61" width="3.75" shape="158.27,258.04,20.00 86.09,149.16,20.00"/>
    <lane id=":7_1_1" index="1" disallow="pedestrian tram rail_urban rail rail_electric rail_fast ship" speed="22.22" length="130.61" width="3.75" shape="161.39,255.96,20.00 89.22,147.09,20.00"/>
    <lane id=":7_1_2" index="2" disallow="pedestrian tram rail_urban rail rail_electric rail_fast ship" speed="22.22" length="130.61" width="3.75" shape="164.51,253.88,20.00 92.35,145.02,20.00"/>
  </edge>
  <edge id=":9.10_0" function="internal">
    <lane id=":9.10_0_0" index="0" disallow="pedestrian tram rail_urban rail rail_electric rail_fast ship" speed="22.22" length="0.30" width="3.75" shape="451.10,634.71,20.00 451.29,634.94,20.00"/>
    <lane id=":9.10_0_1" index="1" disallow="pedestrian tram rail_urban rail rail_electric rail_fast ship" speed="22.22" length="0.30" width="3.75" shape="448.18,637.06,20.00 448.37,637.29,20.00"/>
    <lane id=":9.10_0_2" index="2" disallow="pedestrian tram rail_urban rail rail_electric rail_fast ship" speed="22.22" length="0.30" width="3.75" shape="445.26,639.42,20.00 445.45,639.65,20.00"/>
  </edge>
  <edge id="-0" from="0.begin" to="5" priority="1" type="driving" shape="1102.73,202.87 1102.07,203.44 1101.40,204.01 1100.72,204.59 1100.03,205.18 1099.33,205.78 1098.62,206.40 1097.90,207.02 1097.17,207.65 1096.43,208.29 1095.67,208.94 1094.91,209.60 1094.14,210.27 1093.35,210.95 1092.56,211.64 1091.76,212.34 1090.94,213.04 1090.12,213.76 1089.29,214.49 1088.45,215.22 1087.59,215.97 1086.73,216.72 1085.86,217.48 1084.98,218.25 1084.09,219.03 1083.18,219.82 1082.27,220.62 1081.36,221.43 1080.43,222.25 1079.49,223.07 1078.54,223.90 1077.58,224.75 1076.62,225.60 1075.64,226.46 1074.66,227.32 1073.66,228.20 1072.66,229.08 1071.65,229.98 1070.63,230.88 1069.60,231.79 1068.56,232.70 1067.52,233.63 1066.46,234.56 1065.40,235.50 1064.33,236.45 1063.25,237.41 1062.16,238.37 1061.06,239.35 1059.95,240.33 1058.84,241.31 1057.71,242.31 1056.58,243.31 1055.44,244.32 1054.30,245.34 1053.14,246.37 1051.98,247.40 1050.81,248.44 1049.63,249.49 1048.44,250.55 1047.24,251.61 1046.04,252.68 1044.83,253.76 1043.61,254.84 1042.39,255.93 1041.15,257.03 1039.91,258.13 1038.66,259.24 1037.40,260.36 1036.14,261.49 1034.87,262.62 1033.59,263.76 1032.31,264.90 1031.01,266.05 1029.71,267.21 1028.41,268.37 1027.09,269.54 1025.77,270.72 1024.44,271.90 1023.11,273.09 1021.77,274.29 1020.42,275.49 1019.06,276.70 1017.70,277.91 1016.33,279.13 1014.95,280.36 1013.57,281.59 1012.18,282.83 1010.79,284.07 1009.39,285.32 1007.98,286.57 1006.56,287.83 1005.14,289.10 1003.72,290.37 1002.28,291.65 1000.84,292.93 999.40,294.22 997.95,295.51 996.49,296.81 995.03,298.11 993.56,299.42 992.08,300.74 990.60,302.05 989.12,303.38 987.63,304.71 986.13,306.04 984.62,307.38 983.12,308.72 981.60,310.07 980.08,311.42 978.56,312.78 977.03,314.14 975.49,315.51 973.95,316.88 972.40,318.26 970.85,319.64 969.30,321.02 967.73,322.41 966.17,323.80 964.60,325.20 963.02,326.60 961.44,328.01 959.85,329.42 958.26,330.83 956.67,332.25 955.07,333.67 953.46,335.10 951.85,336.53 950.24,337.96 948.62,339.40 947.00,340.84 945.37,342.28 943.74,343.73 942.10,345.18 940.46,346.63 938.82,348.09 937.17,349.55 935.52,351.02 933.87,352.48 932.21,353.96 930.54,355.43 928.87,356.91 927.20,358.39 925.53,359.87 923.85,361.36 922.16,362.85 920.48,364.34 918.79,365.83 917.09,367.33 915.40,368.83 913.70,370.33 911.99,371.84 910.29,373.35 908.58,374.86 906.86,376.37 905.15,377.89 903.43,379.40 901.70,380.92 899.98,382.44 898.25,383.97 896.52,385.50 894.78,387.02 893.04,388.56 891.30,390.09 889.56,391.62 887.82,393.16 886.07,394.70 884.32,396.24 882.56,397.78 880.81,399.32 879.05,400.87 877.29,402.42 875.52,403.96 873.76,405.51 871.99,407.06 870.22,408.62 868.45,410.17 866.68,411.73 864.90,413.28 863.12,414.84 861.34,416.40 859.56,417.96 857.78,419.52 855.99,421.08 854.20,422.64 852.41,424.21 850.62,425.77 848.83,427.34 847.04,428.90 845.24,430.47 843.44,432.04 841.65,433.61 839.85,435.17 838.05,436.74 836.24,438.31 834.44,439.88 832.64,441.45 830.83,443.02 829.02,444.59 827.22,446.16 825.41,447.74 823.60,449.31 821.79,450.88 819.98,452.45 818.16,454.02 816.35,455.59 814.54,457.16 812.72,458.73 810.91,460.30 809.09,461.87 807.28,463.44 805.46,465.01 803.65,466.58 801.83,468.14 800.01,469.71 798.20,471.28 796.38,472.84 794.56,474.41 792.74,475.97 790.93,477.54 789.11,479.10 787.29,480.66 785.47,482.22 783.66,483.78 781.84,485.34 780.02,486.90 778.21,488.46 776.39,490.01 774.58,491.56 772.76,493.12 770.95,494.67 769.13,496.22 767.32,497.77 765.51,499.31 763.70,500.86 761.88,502.40 760.07,503.94 758.26,505.48 756.46,507.02 754.65,508.56 752.84,510.09 751.04,511.62 749.23,513.15 747.43,514.68 745.63,516.21 743.83,517.73 742.03,519.25 740.23,520.77 738.43,522.29 736.64,523.81 734.84,525.32 733.05,526.83 731.26,528.34 729.47,529.84 727.68,531.34 725.90,532.84 724.11,534.34 722.33,535.84 720.55,537.33 718.77,538.82 717.00,540.30 715.22,541.78 713.45,543.26 711.68,544.74 709.91,546.21 708.15,547.68 706.39,549.15 704.62,550.62 702.87,552.08 701.11,553.53 699.36,554.99 697.61,556.44 695.86,557.89 694.11,559.33 692.37,560.77">
    <lane id="-0_0" index="0" disallow="pedestrian tram rail_urban rail rail_electric rail_fast ship" speed="22.22" length="507.18" width="3.75" shape="1108.82,210.01 1108.16,210.57 1107.50,211.13 1106.82,211.71 1106.14,212.30 1105.44,212.89 1104.74,213.50 1104.02,214.12 1103.29,214.75 1102.55,215.38 1101.81,216.03 1101.05,216.69 1100.28,217.35 1099.50,218.03 1098.71,218.71 1097.91,219.41 1097.10,220.11 1096.28,220.83 1095.45,221.55 1094.61,222.28 1093.76,223.03 1092.90,223.78 1092.03,224.54 1091.15,225.31 1090.26,226.09 1089.37,226.87 1088.46,227.67 1087.54,228.47 1086.61,229.29 1085.68,230.11 1084.73,230.94 1083.78,231.78 1082.81,232.63 1081.84,233.49 1080.86,234.36 1079.87,235.23 1078.87,236.11 1077.86,237.00 1076.84,237.90 1075.81,238.81 1074.77,239.73 1073.73,240.65 1072.67,241.58 1071.61,242.52 1070.54,243.47 1069.46,244.43 1068.37,245.39 1067.28,246.36 1066.17,247.34 1065.06,248.33 1063.94,249.32 1062.81,250.33 1061.67,251.34 1060.52,252.35 1059.37,253.38 1058.20,254.41 1057.03,255.45 1055.85,256.50 1054.67,257.55 1053.47,258.62 1052.27,259.68 1051.06,260.76 1049.84,261.84 1048.62,262.93 1047.38,264.03 1046.14,265.14 1044.89,266.25 1043.64,267.36 1042.37,268.49 1041.10,269.62 1039.83,270.76 1038.54,271.90 1037.25,273.05 1035.95,274.21 1034.64,275.37 1033.33,276.54 1032.01,277.72 1030.68,278.90 1029.34,280.09 1028.00,281.29 1026.65,282.49 1025.30,283.70 1023.94,284.91 1022.57,286.13 1021.19,287.36 1019.81,288.59 1018.42,289.83 1017.03,291.07 1015.62,292.32 1014.22,293.57 1012.80,294.83 1011.38,296.10 1009.95,297.37 1008.52,298.65 1007.08,299.93 1005.64,301.22 1004.18,302.51 1002.73,303.81 1001.26,305.11 999.80,306.42 998.32,307.74 996.84,309.06 995.35,310.38 993.86,311.71 992.36,313.04 990.86,314.38 989.35,315.72 987.84,317.07 986.32,318.43 984.79,319.78 983.26,321.15 981.72,322.51 980.18,323.89 978.63,325.26 977.08,326.64 975.53,328.03 973.96,329.42 972.40,330.81 970.83,332.21 969.25,333.61 967.67,335.02 966.08,336.43 964.49,337.84 962.89,339.26 961.29,340.68 959.69,342.11 958.08,343.54 956.46,344.97 954.84,346.41 953.22,347.85 951.59,349.29 949.96,350.74 948.33,352.19 946.69,353.65 945.04,355.11 943.39,356.57 941.74,358.03 940.08,359.50 938.42,360.97 936.76,362.45 935.09,363.92 933.42,365.41 931.74,366.89 930.06,368.38 928.38,369.87 926.69,371.36 925.00,372.85 923.30,374.35 921.61,375.85 919.91,377.36 918.20,378.86 916.49,380.37 914.78,381.88 913.07,383.40 911.35,384.91 909.63,386.43 907.91,387.95 906.18,389.48 904.45,391.00 902.72,392.53 900.98,394.06 899.24,395.59 897.50,397.12 895.76,398.66 894.01,400.20 892.26,401.74 890.51,403.28 888.75,404.82 887.00,406.36 885.24,407.91 883.47,409.46 881.71,411.01 879.94,412.56 878.17,414.11 876.40,415.67 874.63,417.22 872.85,418.78 871.08,420.33 869.30,421.89 867.52,423.45 865.73,425.01 863.95,426.58 862.16,428.14 860.37,429.70 858.58,431.27 856.79,432.83 855.00,434.40 853.20,435.97 851.40,437.54 849.61,439.10 847.81,440.67 846.01,442.24 844.20,443.81 842.40,445.38 840.59,446.95 838.79,448.53 836.98,450.10 835.17,451.67 833.36,453.24 831.55,454.81 829.74,456.39 827.93,457.96 826.12,459.53 824.30,461.10 822.49,462.68 820.68,464.25 818.86,465.82 817.04,467.39 815.23,468.96 813.41,470.53 811.59,472.10 809.77,473.67 807.95,475.24 806.14,476.81 804.32,478.38 802.50,479.95 800.68,481.51 798.86,483.08 797.04,484.65 795.22,486.21 793.40,487.77 791.58,489.34 789.76,490.90 787.94,492.46 786.13,494.02 784.31,495.58 782.49,497.13 780.67,498.69 778.85,500.24 777.04,501.79 775.22,503.35 773.41,504.90 771.59,506.44 769.78,507.99 767.96,509.54 766.15,511.08 764.34,512.62 762.53,514.16 760.72,515.70 758.91,517.24 757.10,518.77 755.29,520.30 753.49,521.83 751.68,523.36 749.88,524.89 748.08,526.41 746.28,527.93 744.48,529.45 742.68,530.97 740.88,532.49 739.09,534.00 737.30,535.51 735.50,537.02 733.71,538.52 731.93,540.02 730.14,541.52 728.35,543.02 727.15,544.03" type="driving"/>
    <lane id="-0_1" index="1" disallow="pedestrian tram rail_urban rail rail_electric rail_fast ship" speed="22.22" length="507.18" width="3.75" shape="1106.38,207.15 1105.73,207.71 1105.06,208.28 1104.38,208.86 1103.70,209.45 1103.00,210.05 1102.29,210.66 1101.57,211.28 1100.84,211.91 1100.10,212.55 1099.35,213.19 1098.59,213.85 1097.82,214.52 1097.04,215.20 1096.25,215.88 1095.45,216.58 1094.64,217.29 1093.82,218.00 1092.99,218.73 1092.14,219.46 1091.29,220.20 1090.43,220.95 1089.56,221.72 1088.68,222.49 1087.79,223.27 1086.89,224.05 1085.98,224.85 1085.07,225.66 1084.14,226.47 1083.20,227.30 1082.26,228.13 1081.30,228.97 1080.33,229.82 1079.36,230.68 1078.38,231.54 1077.39,232.42 1076.38,233.30 1075.37,234.19 1074.35,235.09 1073.33,236.00 1072.29,236.92 1071.24,237.84 1070.19,238.77 1069.13,239.71 1068.06,240.66 1066.98,241.62 1065.89,242.58 1064.79,243.56 1063.68,244.54 1062.57,245.52 1061.45,246.52 1060.32,247.52 1059.18,248.53 1058.03,249.55 1056.88,250.58 1055.71,251.61 1054.54,252.65 1053.36,253.70 1052.18,254.75 1050.98,255.81 1049.78,256.88 1048.57,257.96 1047.35,259.04 1046.12,260.13 1044.89,261.23 1043.65,262.33 1042.40,263.44 1041.14,264.56 1039.88,265.69 1038.61,266.82 1037.33,267.96 1036.05,269.10 1034.75,270.25 1033.45,271.41 1032.15,272.57 1030.83,273.74 1029.51,274.92 1028.18,276.10 1026.85,277.29 1025.51,278.49 1024.16,279.69 1022.80,280.90 1021.44,282.11 1020.07,283.33 1018.70,284.56 1017.31,285.79 1015.93,287.03 1014.53,288.27 1013.13,289.52 1011.72,290.77 1010.31,292.03 1008.89,293.30 1007.46,294.57 1006.03,295.85 1004.59,297.13 1003.14,298.42 1001.69,299.71 1000.23,301.01 998.77,302.31 997.30,303.62 995.83,304.94 994.34,306.25 992.86,307.58 991.37,308.91 989.87,310.24 988.37,311.58 986.86,312.92 985.34,314.27 983.82,315.63 982.30,316.98 980.77,318.35 979.23,319.71 977.69,321.08 976.14,322.46 974.59,323.84 973.03,325.23 971.47,326.61 969.91,328.01 968.33,329.41 966.76,330.81 965.18,332.21 963.59,333.62 962.00,335.04 960.40,336.45 958.80,337.88 957.20,339.30 955.59,340.73 953.97,342.17 952.36,343.60 950.73,345.04 949.11,346.49 947.47,347.93 945.84,349.39 944.20,350.84 942.55,352.30 940.90,353.76 939.25,355.23 937.60,356.69 935.94,358.17 934.27,359.64 932.60,361.12 930.93,362.60 929.25,364.08 927.58,365.57 925.89,367.06 924.21,368.55 922.51,370.05 920.82,371.54 919.12,373.04 917.42,374.55 915.72,376.05 914.01,377.56 912.30,379.07 910.59,380.59 908.87,382.10 907.15,383.62 905.42,385.14 903.70,386.66 901.97,388.19 900.24,389.72 898.50,391.25 896.76,392.78 895.02,394.31 893.28,395.84 891.53,397.38 889.78,398.92 888.03,400.46 886.28,402.00 884.52,403.55 882.76,405.09 881.00,406.64 879.24,408.19 877.47,409.74 875.70,411.29 873.93,412.85 872.16,414.40 870.38,415.96 868.61,417.51 866.83,419.07 865.05,420.63 863.26,422.19 861.48,423.75 859.69,425.32 857.90,426.88 856.11,428.44 854.32,430.01 852.53,431.58 850.74,433.14 848.94,434.71 847.14,436.28 845.34,437.85 843.54,439.42 841.74,440.99 839.94,442.56 838.13,444.13 836.33,445.70 834.52,447.27 832.71,448.84 830.90,450.41 829.10,451.98 827.28,453.55 825.47,455.13 823.66,456.70 821.85,458.27 820.03,459.84 818.22,461.41 816.41,462.98 814.59,464.55 812.77,466.13 810.96,467.70 809.14,469.27 807.32,470.83 805.51,472.40 803.69,473.97 801.87,475.54 800.05,477.11 798.23,478.67 796.41,480.24 794.59,481.80 792.78,483.37 790.96,484.93 789.14,486.49 787.32,488.05 785.50,489.61 783.69,491.17 781.87,492.73 780.05,494.28 778.23,495.84 776.42,497.39 774.60,498.94 772.79,500.49 770.97,502.04 769.16,503.59 767.34,505.14 765.53,506.68 763.72,508.22 761.91,509.77 760.10,511.31 758.29,512.84 756.48,514.38 754.68,515.91 752.87,517.44 751.06,518.97 749.26,520.50 747.46,522.03 745.66,523.55 743.86,525.07 742.06,526.59 740.26,528.11 738.47,529.62 736.67,531.13 734.88,532.64 733.09,534.15 731.30,535.65 729.51,537.15 727.73,538.65 725.95,540.15 724.74,541.16" type="driving"/>