<?xml version='1.0' encoding='UTF-8'?>
<!-- generated on 2022-09-25 13:25:12 by Eclipse SUMO netconvert Version 1.13.0
<configuration xmlns:xsi="http://www.w3.org/2001/XMLSchema-instance" xsi:noNamespaceSchemaLocation="http://sumo.dlr.de/xsd/netconvertConfiguration.xsd">

    <input>
        <opendrive-files value="map_new_new\14\15\15.xodr"/>
    </input>

    <output>
        <output-file value="C:\Users\LinGe\AppData\Local\Temp\tmpqxc0ags9\15.net.xml"/>
    </output>

    <processing>
        <geometry.max-grade.fix value="false"/>
    </processing>

    <tls_building>
        <tls.left-green.time value="0"/>
    </tls_building>

    <junctions>
        <rectangular-lane-cut value="true"/>
    </junctions>

    <report>
        <aggregate-warnings value="5"/>
    </report>

</configuration>
-->
<net xmlns:xsi="http://www.w3.org/2001/XMLSchema-instance" version="1.9" junctionCornerDetail="5" rectangularLaneCut="true" limitTurnSpeed="5.50" xsi:noNamespaceSchemaLocation="http://sumo.dlr.de/xsd/net_file.xsd">
  <location netOffset="1.56,101.26" convBoundary="0.00,0.00,1102.73,1302.51" origBoundary="-1.56,-101.26,1101.18,1201.26" projParameter="!"/>
  <type id="bidirectional" priority="1" speed="1.39" disallow="pedestrian tram rail_urban rail rail_electric rail_fast ship" width="3.65"/>
  <type id="border" priority="0" speed="1.39" disallow="all" discard="1" width="0.10"/>
  <type id="driving" priority="1" speed="13.89" disallow="pedestrian tram rail_urban rail rail_electric rail_fast ship" width="3.65"/>
  <type id="entry" priority="1" speed="22.22" disallow="pedestrian tram rail_urban rail rail_electric rail_fast ship" width="3.65"/>
  <type id="exit" priority="1" speed="22.22" disallow="pedestrian tram rail_urban rail rail_electric rail_fast ship" width="3.65"/>
  <type id="median" priority="0" speed="1.39" disallow="all" discard="1" width="0.10"/>
  <type id="mwyEntry" priority="1" speed="22.22" allow="private emergency authority army vip passenger hov taxi bus coach delivery truck trailer motorcycle evehicle custom1 custom2" width="3.65"/>
  <type id="mwyExit" priority="1" speed="22.22" allow="private emergency authority army vip passenger hov taxi bus coach delivery truck trailer motorcycle evehicle custom1 custom2" width="3.65"/>
  <type id="none" priority="0" speed="1.39" disallow="all" discard="1" width="1.00"/>
  <type id="offRamp" priority="1" speed="22.22" allow="private emergency authority army vip passenger hov taxi bus coach delivery truck trailer motorcycle evehicle custom1 custom2" width="3.65"/>
  <type id="onRamp" priority="1" speed="22.22" allow="private emergency authority army vip passenger hov taxi bus coach delivery truck trailer motorcycle evehicle custom1 custom2" width="3.65"/>
  <type id="parking" priority="1" speed="1.39" disallow="pedestrian tram rail_urban rail rail_electric rail_fast ship" width="2.50"/>
  <type id="rail" priority="3" speed="33.33" allow="rail_urban rail rail_electric rail_fast" width="3.65"/>
  <type id="restricted" priority="0" speed="13.89" disallow="all" width="3.65"/>
  <type id="roadWorks" priority="0" speed="1.39" allow="authority" width="3.65"/>
  <type id="shoulder" priority="0" speed="1.39" disallow="all" discard="1" width="1.00"/>
  <type id="special1" priority="1" speed="22.22" allow="custom1" discard="1" width="3.65"/>
  <type id="special2" priority="1" speed="22.22" allow="custom2" discard="1" width="3.65"/>
  <type id="special3" priority="1" speed="22.22" allow="custom1 custom2" discard="1" width="3.65"/>
  <type id="stop" priority="1" speed="13.89" disallow="pedestrian tram rail_urban rail rail_electric rail_fast ship" width="3.65"/>
  <type id="tram" priority="2" speed="13.89" allow="tram" width="3.65"/>
  <edge id=":0_0" function="internal">
    <lane id=":0_0_0" index="0" disallow="pedestrian tram rail_urban rail rail_electric rail_fast ship" speed="16.67" length="26.56" width="3.75" shape="456.37,625.35 449.71,631.37 444.90,636.90 441.68,641.76 439.78,645.76"/>
  </edge>
  <edge id=":0_1" function="internal">
    <lane id=":0_1_0" index="0" disallow="pedestrian tram rail_urban rail rail_electric rail_fast ship" speed="22.22" length="27.13" width="3.75" shape="456.37,625.35 435.35,642.47"/>
    <lane id=":0_1_1" index="1" disallow="pedestrian tram rail_urban rail rail_electric rail_fast ship" speed="22.22" length="27.13" width="3.75" shape="454.01,622.44 432.97,639.57"/>
    <lane id=":0_1_2" index="2" disallow="pedestrian tram rail_urban rail rail_electric rail_fast ship" speed="22.22" length="27.13" width="3.75" shape="451.65,619.52 430.60,636.67"/>
  </edge>
  <edge id=":1_0" function="internal">
    <lane id=":1_0_0" index="0" disallow="pedestrian tram rail_urban rail rail_electric rail_fast ship" speed="22.22" length="79.02" width="3.75" shape="108.27,893.00 121.39,880.73 139.52,863.10 156.16,846.62 164.81,837.82"/>
  </edge>
  <edge id=":1_1" function="internal">
    <lane id=":1_1_0" index="0" disallow="pedestrian tram rail_urban rail rail_electric rail_fast ship" speed="22.22" length="79.17" width="3.75" shape="108.27,893.00 167.80,840.80"/>
    <lane id=":1_1_1" index="1" disallow="pedestrian tram rail_urban rail rail_electric rail_fast ship" speed="22.22" length="79.17" width="3.75" shape="110.74,895.82 170.27,843.63"/>
    <lane id=":1_1_2" index="2" disallow="pedestrian tram rail_urban rail rail_electric rail_fast ship" speed="22.22" length="79.17" width="3.75" shape="113.22,898.64 172.74,846.45"/>
  </edge>
  <edge id=":14.13_0" function="internal">
    <lane id=":14.13_0_0" index="0" disallow="pedestrian tram rail_urban rail rail_electric rail_fast ship" speed="22.22" length="0.30" width="3.75" shape="541.87,607.65,20.00 541.68,607.42,20.00"/>
    <lane id=":14.13_0_1" index="1" disallow="pedestrian tram rail_urban rail rail_electric rail_fast ship" speed="22.22" length="0.30" width="3.75" shape="544.79,605.29,20.00 544.60,605.06,20.00"/>
    <lane id=":14.13_0_2" index="2" disallow="pedestrian tram rail_urban rail rail_electric rail_fast ship" speed="22.22" length="0.30" width="3.75" shape="547.71,602.94,20.00 547.51,602.70,20.00"/>
  </edge>
  <edge id=":17.16_0" function="internal">
    <lane id=":17.16_0_0" index="0" disallow="pedestrian tram rail_urban rail rail_electric rail_fast ship" speed="11.11" length="0.27" width="3.75" shape="501.43,708.92,9.95 501.69,708.95,9.98"/>
  </edge>
  <edge id=":19.18_0" function="internal">
    <lane id=":19.18_0_0" index="0" disallow="pedestrian tram rail_urban rail rail_electric rail_fast ship" speed="13.89" length="0.28" width="3.75" shape="731.27,593.73,9.98 731.29,593.45,9.95"/>
  </edge>
  <edge id=":2_0" function="internal">
    <lane id=":2_0_0" index="0" disallow="pedestrian tram rail_urban rail rail_electric rail_fast ship" speed="18.06" length="23.41" width="3.75" shape="625.64,679.32,20.00 630.65,685.31,20.00 635.32,689.58,20.00 639.58,692.40,20.00 643.40,694.05,20.00"/>
  </edge>
  <edge id=":2_1" function="internal">
    <lane id=":2_1_0" index="0" disallow="pedestrian tram rail_urban rail rail_electric rail_fast ship" speed="22.22" length="24.11" width="3.75" shape="625.64,679.32,20.00 640.00,698.69,20.00"/>
    <lane id=":2_1_1" index="1" disallow="pedestrian tram rail_urban rail rail_electric rail_fast ship" speed="22.22" length="24.11" width="3.75" shape="622.63,681.55,20.00 636.99,700.92,20.00"/>
    <lane id=":2_1_2" index="2" disallow="pedestrian tram rail_urban rail rail_electric rail_fast ship" speed="22.22" length="24.11" width="3.75" shape="619.62,683.79,20.00 633.97,703.15,20.00"/>
  </edge>
  <edge id=":2.1_0" function="internal">
    <lane id=":2.1_0_0" index="0" disallow="pedestrian tram rail_urban rail rail_electric rail_fast ship" speed="22.22" length="0.30" width="3.75" shape="556.98,547.32 556.74,547.49"/>
    <lane id=":2.1_0_1" index="1" disallow="pedestrian tram rail_urban rail rail_electric rail_fast ship" speed="22.22" length="0.30" width="3.75" shape="554.78,544.29 554.53,544.46"/>
    <lane id=":2.1_0_2" index="2" disallow="pedestrian tram rail_urban rail rail_electric rail_fast ship" speed="22.22" length="0.30" width="3.75" shape="552.57,541.25 552.33,541.43"/>
  </edge>
  <edge id=":21.20_0" function="internal">
    <lane id=":21.20_0_0" index="0" disallow="pedestrian tram rail_urban rail rail_electric rail_fast ship" speed="22.22" length="0.30" width="3.75" shape="545.64,322.45,9.88 545.94,322.49,9.87"/>
  </edge>
  <edge id=":23.22_0" function="internal">
    <lane id=":23.22_0_0" index="0" disallow="pedestrian tram rail_urban rail rail_electric rail_fast ship" speed="22.22" length="0.30" width="3.75" shape="225.98,452.10,11.48 225.98,451.80,11.49"/>
  </edge>
  <edge id=":3_0" function="internal">
    <lane id=":3_0_0" index="0" disallow="pedestrian tram rail_urban rail rail_electric rail_fast ship" speed="22.22" length="47.52" width="3.75" shape="147.65,139.94,20.00 156.99,149.03,19.96 167.81,158.61,19.92 177.46,166.71,19.88 183.28,171.33,19.85"/>
  </edge>
  <edge id=":3_1" function="internal">
    <lane id=":3_1_0" index="0" disallow="pedestrian tram rail_urban rail rail_electric rail_fast ship" speed="22.22" length="47.68" width="3.75" shape="147.65,139.94,20.00 180.35,174.65,20.00"/>
    <lane id=":3_1_1" index="1" disallow="pedestrian tram rail_urban rail rail_electric rail_fast ship" speed="22.22" length="47.68" width="3.75" shape="144.92,142.51,20.00 177.62,177.22,20.00"/>
    <lane id=":3_1_2" index="2" disallow="pedestrian tram rail_urban rail rail_electric rail_fast ship" speed="22.22" length="47.68" width="3.75" shape="142.19,145.09,20.00 174.89,179.79,20.00"/>
  </edge>
  <edge id=":4_0" function="internal">
    <lane id=":4_0_0" index="0" disallow="pedestrian tram rail_urban rail rail_electric rail_fast ship" speed="16.67" length="28.68" width="3.75" shape="577.29,663.66,20.00 576.65,659.09,20.00 574.69,653.07,20.00 571.13,645.89,20.00 565.68,637.84,20.00"/>
  </edge>
  <edge id=":4_1" function="internal">
    <lane id=":4_1_0" index="0" disallow="pedestrian tram rail_urban rail rail_electric rail_fast ship" speed="22.22" length="27.23" width="3.75" shape="582.23,659.43,20.00 565.68,637.84,20.00"/>
    <lane id=":4_1_1" index="1" disallow="pedestrian tram rail_urban rail rail_electric rail_fast ship" speed="22.22" length="27.23" width="3.75" shape="585.21,657.16,20.00 568.65,635.54,20.00"/>
    <lane id=":4_1_2" index="2" disallow="pedestrian tram rail_urban rail rail_electric rail_fast ship" speed="22.22" length="27.23" width="3.75" shape="588.20,654.89,20.00 571.61,633.25,20.00"/>
  </edge>
  <edge id=":5_0" function="internal">
    <lane id=":5_0_0" index="0" disallow="pedestrian tram rail_urban rail rail_electric rail_fast ship" speed="18.06" length="28.13" width="3.75" shape="663.57,482.64 659.01,483.09 652.98,484.55 645.70,487.43 637.41,492.11"/>
  </edge>
  <edge id=":5_1" function="internal">
    <lane id=":5_1_0" index="0" disallow="pedestrian tram rail_urban rail rail_electric rail_fast ship" speed="22.22" length="26.81" width="3.75" shape="659.86,477.52 637.41,492.11"/>
    <lane id=":5_1_1" index="1" disallow="pedestrian tram rail_urban rail rail_electric rail_fast ship" speed="22.22" length="26.81" width="3.75" shape="657.83,474.37 635.36,488.98"/>
    <lane id=":5_1_2" index="2" disallow="pedestrian tram rail_urban rail rail_electric rail_fast ship" speed="22.22" length="26.81" width="3.75" shape="655.80,471.22 633.30,485.84"/>
  </edge>
  <edge id=":6_0" function="internal">
    <lane id=":6_0_0" index="0" disallow="pedestrian tram rail_urban rail rail_electric rail_fast ship" speed="22.22" length="48.14" width="3.75" shape="925.32,285.41,0.15 932.31,282.62,0.13 944.08,277.56,0.09 957.40,271.41,0.04 969.05,265.35"/>
  </edge>
  <edge id=":6_1" function="internal">
    <lane id=":6_1_0" index="0" disallow="pedestrian tram rail_urban rail rail_electric rail_fast ship" speed="22.22" length="47.64" width="3.75" shape="927.81,289.20 969.05,265.35"/>
    <lane id=":6_1_1" index="1" disallow="pedestrian tram rail_urban rail rail_electric rail_fast ship" speed="22.22" length="47.64" width="3.75" shape="929.69,292.45 970.92,268.59"/>
    <lane id=":6_1_2" index="2" disallow="pedestrian tram rail_urban rail rail_electric rail_fast ship" speed="22.22" length="47.64" width="3.75" shape="931.57,295.69 972.80,271.84"/>
  </edge>
  <edge id=":6.5_0" function="internal">
    <lane id=":6.5_0_0" index="0" disallow="pedestrian tram rail_urban rail rail_electric rail_fast ship" speed="22.22" length="0.30" width="3.75" shape="543.36,529.10 543.60,528.92"/>
    <lane id=":6.5_0_1" index="1" disallow="pedestrian tram rail_urban rail rail_electric rail_fast ship" speed="22.22" length="0.30" width="3.75" shape="545.56,532.13 545.81,531.95"/>
    <lane id=":6.5_0_2" index="2" disallow="pedestrian tram rail_urban rail rail_electric rail_fast ship" speed="22.22" length="0.30" width="3.75" shape="547.77,535.16 548.01,534.99"/>
  </edge>
  <edge id=":7_0" function="internal">
    <lane id=":7_0_0" index="0" disallow="pedestrian tram rail_urban rail rail_electric rail_fast ship" speed="22.22" length="97.77" width="3.75" shape="170.47,203.44,20.00 160.65,191.74,20.00 141.23,169.06,20.00 120.44,145.09,20.00 106.53,129.49,20.00"/>
  </edge>
  <edge id=":7_1" function="internal">
    <lane id=":7_1_0" index="0" disallow="pedestrian tram rail_urban rail rail_electric rail_fast ship" speed="22.22" length="97.50" width="3.75" shape="173.40,200.44,20.00 106.53,129.49,20.00"/>
    <lane id=":7_1_1" index="1" disallow="pedestrian tram rail_urban rail rail_electric rail_fast ship" speed="22.22" length="97.50" width="3.75" shape="176.13,197.87,20.00 109.25,126.92,20.00"/>
    <lane id=":7_1_2" index="2" disallow="pedestrian tram rail_urban rail rail_electric rail_fast ship" speed="22.22" length="97.50" width="3.75" shape="178.86,195.30,20.00 111.98,124.35,20.00"/>
  </edge>
  <edge id=":9.10_0" function="internal">
    <lane id=":9.10_0_0" index="0" disallow="pedestrian tram rail_urban rail rail_electric rail_fast ship" speed="22.22" length="0.30" width="3.75" shape="559.38,593.12,20.00 559.57,593.36,20.00"/>
    <lane id=":9.10_0_1" index="1" disallow="pedestrian tram rail_urban rail rail_electric rail_fast ship" speed="22.22" length="0.30" width="3.75" shape="556.46,595.48,20.00 556.65,595.71,20.00"/>
    <lane id=":9.10_0_2" index="2" disallow="pedestrian tram rail_urban rail rail_electric rail_fast ship" speed="22.22" length="0.30" width="3.75" shape="553.55,597.84,20.00 553.73,598.07,20.00"/>
  </edge>
  <edge id="-0" from="0.begin" to="5" priority="1" type="driving" shape="1102.73,202.87 1101.93,203.36 1101.12,203.86 1100.30,204.36 1099.46,204.86 1098.62,205.38 1097.76,205.90 1096.88,206.42 1096.00,206.96 1095.10,207.49 1094.19,208.04 1093.27,208.59 1092.34,209.15 1091.40,209.71 1090.44,210.28 1089.47,210.86 1088.49,211.44 1087.50,212.03 1086.50,212.63 1085.49,213.23 1084.46,213.84 1083.42,214.45 1082.38,215.07 1081.32,215.70 1080.25,216.33 1079.17,216.96 1078.07,217.61 1076.97,218.26 1075.86,218.91 1074.73,219.57 1073.60,220.24 1072.45,220.91 1071.30,221.59 1070.13,222.27 1068.95,222.96 1067.76,223.65 1066.57,224.35 1065.36,225.06 1064.14,225.77 1062.91,226.49 1061.67,227.21 1060.42,227.94 1059.16,228.67 1057.89,229.41 1056.62,230.15 1055.33,230.90 1054.03,231.66 1052.72,232.42 1051.40,233.18 1050.08,233.95 1048.74,234.73 1047.40,235.51 1046.04,236.29 1044.68,237.08 1043.31,237.88 1041.92,238.68 1040.53,239.49 1039.13,240.30 1037.72,241.11 1036.30,241.93 1034.88,242.76 1033.44,243.59 1032.00,244.42 1030.54,245.26 1029.08,246.11 1027.61,246.96 1026.14,247.81 1024.65,248.67 1023.15,249.53 1021.65,250.40 1020.14,251.27 1018.62,252.15 1017.09,253.03 1015.56,253.92 1014.02,254.81 1012.46,255.71 1010.91,256.60 1009.34,257.51 1007.77,258.42 1006.18,259.33 1004.59,260.25 1003.00,261.17 1001.39,262.09 999.78,263.02 998.16,263.96 996.54,264.89 994.91,265.84 993.27,266.78 991.62,267.73 989.97,268.69 988.31,269.65 986.64,270.61 984.96,271.57 983.28,272.54 981.60,273.52 979.90,274.50 978.20,275.48 976.49,276.46 974.78,277.45 973.06,278.45 971.34,279.44 969.60,280.44 967.87,281.45 966.12,282.45 964.37,283.47 962.62,284.48 960.86,285.50 959.09,286.52 957.32,287.55 955.54,288.58 953.75,289.61 951.96,290.64 950.17,291.68 948.37,292.72 946.56,293.77 944.75,294.82 942.93,295.87 941.11,296.93 939.29,297.99 937.45,299.05 935.62,300.11 933.78,301.18 931.93,302.25 930.08,303.32 928.22,304.40 926.36,305.48 924.50,306.56 922.63,307.65 920.76,308.74 918.88,309.83 917.00,310.93 915.11,312.02 913.22,313.12 911.32,314.23 909.42,315.33 907.52,316.44 905.62,317.55 903.70,318.66 901.79,319.78 899.87,320.90 897.95,322.02 896.03,323.14 894.10,324.27 892.16,325.40 890.23,326.53 888.29,327.66 886.35,328.80 884.40,329.94 882.45,331.08 880.50,332.22 878.55,333.37 876.59,334.51 874.63,335.66 872.67,336.81 870.70,337.97 868.73,339.12 866.76,340.28 864.79,341.44 862.81,342.60 860.83,343.77 858.85,344.93 856.87,346.10 854.88,347.27 852.89,348.44 850.90,349.62 848.91,350.79 846.92,351.97 844.92,353.15 842.93,354.33 840.93,355.51 838.92,356.69 836.92,357.88 834.92,359.07 832.91,360.25 830.90,361.44 828.90,362.64 826.89,363.83 824.87,365.02 822.86,366.22 820.85,367.42 818.83,368.62 816.82,369.82 814.80,371.02 812.78,372.22 810.76,373.43 808.75,374.63 806.73,375.84 804.70,377.05 802.68,378.25 800.66,379.46 798.64,380.68 796.62,381.89 794.59,383.10 792.57,384.31 790.55,385.53 788.53,386.75 786.50,387.96 784.48,389.18 782.46,390.40 780.43,391.62 778.41,392.84 776.39,394.06 774.37,395.28 772.34,396.50 770.32,397.73 768.30,398.95 766.28,400.17 764.26,401.40 762.24,402.62 760.22,403.85 758.21,405.08 756.19,406.30 754.18,407.53 752.16,408.76 750.15,409.99 748.14,411.22 746.13,412.44 744.12,413.67 742.11,414.90 740.10,416.13 738.10,417.36 736.09,418.59 734.09,419.82 732.09,421.05 730.09,422.28 728.10,423.51 726.10,424.74 724.11,425.97 722.12,427.20 720.13,428.43 718.14,429.66 716.16,430.90 714.17,432.12 712.19,433.35 710.22,434.58 708.24,435.81 706.27,437.04 704.30,438.27 702.33,439.50 700.37,440.73 698.41,441.96 696.45,443.18 694.49,444.41 692.54,445.64 690.59,446.86 688.64,448.09 686.70,449.31 684.76,450.54 682.82,451.76 680.89,452.98 678.96,454.20 677.03,455.43 675.11,456.65 673.19,457.87 671.27,459.09 669.36,460.30 667.45,461.52 665.54,462.74 663.64,463.95 661.75,465.17 659.85,466.38 657.96,467.60 656.08,468.81 654.20,470.02 652.32,471.23 650.45,472.44 648.59,473.64 646.72,474.85 644.87,476.06 643.01,477.26 641.16,478.46 639.32,479.66 637.48,480.86 635.65,482.06">
    <lane id="-0_0" index="0" disallow="pedestrian tram rail_urban rail rail_electric rail_fast ship" speed="22.22" length="521.27" width="3.75" shape="1107.62,210.88 1106.81,211.37 1106.00,211.86 1105.17,212.37 1104.32,212.88 1103.47,213.40 1102.60,213.92 1101.72,214.45 1100.83,214.99 1099.93,215.53 1099.02,216.08 1098.09,216.63 1097.15,217.20 1096.20,217.76 1095.24,218.34 1094.27,218.92 1093.29,219.50 1092.29,220.09 1091.28,220.69 1090.27,221.29 1089.24,221.90 1088.20,222.52 1087.15,223.14 1086.08,223.77 1085.01,224.40 1083.93,225.04 1082.83,225.69 1081.72,226.34 1080.61,226.99 1079.48,227.66 1078.34,228.32 1077.19,229.00 1076.03,229.68 1074.86,230.36 1073.68,231.05 1072.49,231.75 1071.29,232.45 1070.08,233.16 1068.86,233.87 1067.63,234.59 1066.39,235.31 1065.14,236.04 1063.88,236.77 1062.61,237.51 1061.33,238.26 1060.04,239.01 1058.74,239.76 1057.43,240.52 1056.11,241.29 1054.78,242.06 1053.45,242.84 1052.10,243.62 1050.74,244.40 1049.38,245.19 1048.01,245.99 1046.62,246.79 1045.23,247.60 1043.83,248.41 1042.42,249.23 1041.00,250.05 1039.57,250.87 1038.14,251.70 1036.69,252.54 1035.24,253.38 1033.77,254.22 1032.30,255.07 1030.83,255.93 1029.34,256.79 1027.84,257.65 1026.34,258.52 1024.83,259.39 1023.31,260.27 1021.78,261.15 1020.25,262.04 1018.70,262.93 1017.15,263.82 1015.59,264.72 1014.03,265.63 1012.45,266.54 1010.87,267.45 1009.28,268.37 1007.68,269.29 1006.08,270.21 1004.47,271.14 1002.85,272.08 1001.22,273.01 999.59,273.96 997.95,274.90 996.31,275.85 994.65,276.81 992.99,277.77 991.32,278.73 989.65,279.69 987.97,280.66 986.28,281.64 984.59,282.62 982.89,283.60 981.18,284.58 979.47,285.57 977.75,286.56 976.03,287.56 974.29,288.56 972.56,289.56 970.81,290.57 969.06,291.58 967.31,292.60 965.55,293.62 963.78,294.64 962.01,295.66 960.23,296.69 958.45,297.72 956.66,298.76 954.86,299.80 953.06,300.84 951.26,301.88 949.45,302.93 947.63,303.98 945.81,305.04 943.99,306.10 942.16,307.16 940.32,308.22 938.48,309.29 936.63,310.36 934.78,311.43 932.93,312.51 931.07,313.59 929.21,314.67 927.34,315.76 925.47,316.84 923.59,317.94 921.71,319.03 919.82,320.13 917.93,321.23 916.04,322.33 914.14,323.43 912.24,324.54 910.34,325.65 908.43,326.76 906.51,327.88 904.60,329.00 902.68,330.12 900.75,331.24 898.82,332.37 896.89,333.49 894.96,334.62 893.02,335.76 891.08,336.89 889.14,338.03 887.19,339.17 885.24,340.31 883.29,341.45 881.33,342.60 879.37,343.75 877.41,344.90 875.45,346.05 873.48,347.21 871.51,348.36 869.54,349.52 867.56,350.68 865.59,351.85 863.61,353.01 861.63,354.18 859.64,355.35 857.66,356.52 855.67,357.69 853.68,358.86 851.69,360.04 849.69,361.22 847.70,362.40 845.70,363.58 843.70,364.76 841.70,365.95 839.70,367.13 837.69,368.32 835.69,369.51 833.68,370.70 831.67,371.89 829.66,373.08 827.65,374.28 825.64,375.48 823.63,376.67 821.61,377.87 819.60,379.07 817.58,380.27 815.57,381.48 813.55,382.68 811.53,383.89 809.52,385.09 807.50,386.30 805.48,387.51 803.46,388.72 801.44,389.93 799.42,391.14 797.40,392.35 795.38,393.57 793.36,394.78 791.34,396.00 789.31,397.21 787.29,398.43 785.27,399.65 783.25,400.86 781.23,402.08 779.21,403.30 777.20,404.53 775.18,405.75 773.16,406.97 771.14,408.19 769.12,409.41 767.11,410.64 765.09,411.86 763.08,413.09 761.07,414.31 759.05,415.54 757.04,416.76 755.03,417.99 753.02,419.22 751.02,420.44 749.01,421.67 747.00,422.90 745.00,424.13 743.00,425.35 741.00,426.58 739.00,427.81 737.00,429.04 735.01,430.27 733.01,431.49 731.02,432.72 729.03,433.95 727.05,435.18 725.06,436.41 723.08,437.63 721.10,438.86 719.12,440.09 717.14,441.32 715.17,442.54 713.20,443.77 711.23,445.00 709.26,446.22 707.30,447.45 705.34,448.68 703.38,449.90 701.43,451.13 699.47,452.35 697.53,453.57 695.58,454.80 693.64,456.02 691.70,457.24 689.76,458.46 687.83,459.68 685.90,460.90 683.97,462.12 682.05,463.34 680.13,464.56 678.22,465.78 676.30,466.99 674.40,468.21 672.49,469.42 670.59,470.64 668.70,471.85 666.80,473.06 664.92,474.27 663.03,475.48 661.15,476.69 659.86,477.52" type="driving"/>
    <lane id="-0_1" index="1" disallow="pedestrian tram rail_urban rail rail_electric rail_fast ship" speed="22.22" length="521.27" width="3.75" shape="1105.66,207.68 1104.86,208.16 1104.05,208.66 1103.22,209.16 1102.38,209.67 1101.53,210.19 1100.66,210.71 1099.79,211.24 1098.90,211.78 1098.00,212.32 1097.09,212.86 1096.16,213.42 1095.23,213.98 1094.28,214.54 1093.32,215.12 1092.35,215.69 1091.37,216.28 1090.37,216.87 1089.37,217.47 1088.35,218.07 1087.33,218.68 1086.29,219.29 1085.24,219.91 1084.18,220.54 1083.10,221.17 1082.02,221.81 1080.93,222.45 1079.82,223.10 1078.71,223.76 1077.58,224.42 1076.44,225.09 1075.30,225.76 1074.14,226.44 1072.97,227.12 1071.79,227.81 1070.60,228.51 1069.40,229.21 1068.19,229.92 1066.97,230.63 1065.74,231.35 1064.50,232.07 1063.25,232.80 1061.99,233.53 1060.72,234.27 1059.44,235.02 1058.15,235.77 1056.86,236.52 1055.55,237.28 1054.23,238.05 1052.90,238.82 1051.57,239.59 1050.22,240.37 1048.86,241.16 1047.50,241.95 1046.13,242.75 1044.74,243.55 1043.35,244.35 1041.95,245.16 1040.54,245.98 1039.12,246.80 1037.69,247.63 1036.26,248.46 1034.81,249.29 1033.36,250.13 1031.90,250.98 1030.43,251.83 1028.95,252.68 1027.46,253.54 1025.97,254.40 1024.46,255.27 1022.95,256.15 1021.43,257.02 1019.91,257.90 1018.37,258.79 1016.83,259.68 1015.28,260.58 1013.72,261.48 1012.15,262.38 1010.58,263.29 1009.00,264.20 1007.41,265.12 1005.81,266.04 1004.21,266.97 1002.59,267.90 1000.98,268.83 999.35,269.77 997.72,270.71 996.08,271.66 994.43,272.61 992.78,273.56 991.12,274.52 989.45,275.48 987.78,276.45 986.10,277.42 984.41,278.39 982.71,279.37 981.01,280.35 979.31,281.33 977.59,282.32 975.88,283.32 974.15,284.31 972.42,285.31 970.68,286.32 968.94,287.32 967.19,288.34 965.43,289.35 963.67,290.37 961.90,291.39 960.13,292.42 958.35,293.44 956.57,294.48 954.78,295.51 952.99,296.55 951.18,297.59 949.38,298.64 947.57,299.69 945.75,300.74 943.93,301.79 942.11,302.85 940.27,303.91 938.44,304.98 936.60,306.05 934.75,307.12 932.90,308.19 931.05,309.27 929.19,310.35 927.32,311.43 925.45,312.51 923.58,313.60 921.70,314.69 919.82,315.79 917.94,316.88 916.05,317.98 914.15,319.09 912.26,320.19 910.35,321.30 908.45,322.41 906.54,323.52 904.62,324.64 902.71,325.76 900.79,326.88 898.86,328.00 896.93,329.13 895.00,330.26 893.07,331.39 891.13,332.52 889.19,333.65 887.24,334.79 885.30,335.93 883.35,337.07 881.39,338.22 879.44,339.37 877.48,340.51 875.51,341.67 873.55,342.82 871.58,343.97 869.61,345.13 867.64,346.29 865.66,347.45 863.68,348.61 861.70,349.78 859.72,350.95 857.74,352.12 855.75,353.29 853.76,354.46 851.77,355.63 849.78,356.81 847.78,357.99 845.79,359.17 843.79,360.35 841.79,361.53 839.79,362.72 837.78,363.91 835.78,365.09 833.77,366.28 831.77,367.47 829.76,368.67 827.75,369.86 825.74,371.06 823.72,372.25 821.71,373.45 819.70,374.65 817.68,375.85 815.66,377.05 813.65,378.26 811.63,379.46 809.61,380.67 807.59,381.87 805.57,383.08 803.55,384.29 801.53,385.50 799.51,386.71 797.49,387.92 795.47,389.14 793.45,390.35 791.42,391.57 789.40,392.78 787.38,394.00 785.36,395.22 783.34,396.43 781.32,397.65 779.30,398.87 777.27,400.09 775.25,401.32 773.23,402.54 771.22,403.76 769.20,404.98 767.18,406.21 765.16,407.43 763.15,408.66 761.13,409.88 759.12,411.11 757.10,412.33 755.09,413.56 753.08,414.79 751.07,416.02 749.06,417.24 747.05,418.47 745.05,419.70 743.04,420.93 741.04,422.16 739.04,423.39 737.04,424.61 735.04,425.84 733.04,427.07 731.05,428.30 729.05,429.53 727.06,430.76 725.07,431.99 723.09,433.22 721.10,434.45 719.12,435.68 717.14,436.90 715.16,438.13 713.19,439.36 711.22,440.59 709.25,441.82 707.28,443.04 705.31,444.27 703.35,445.50 701.39,446.72 699.43,447.95 697.48,449.17 695.53,450.40 693.58,451.62 691.64,452.85 689.70,454.07 687.76,455.29 685.82,456.51 683.89,457.74 681.97,458.96 680.04,460.18 678.12,461.40 676.20,462.61 674.29,463.83 672.38,465.05 670.47,466.26 668.57,467.48 666.68,468.69 664.78,469.91 662.89,471.12 661.01,472.33 659.12,473.54 657.83,474.37" type="driving"/>