<?xml version='1.0' encoding='UTF-8'?>
<!-- generated on 2022-09-02 20:46:48 by Eclipse SUMO netconvert Version 1.13.0
<configuration xmlns:xsi="http://www.w3.org/2001/XMLSchema-instance" xsi:noNamespaceSchemaLocation="http://sumo.dlr.de/xsd/netconvertConfiguration.xsd">

    <input>
        <opendrive-files value="map\classification\21\42113737\42113737.xodr"/>
    </input>

    <output>
        <output-file value="C:\Users\LinGe\AppData\Local\Temp\tmplb58c83m\42113737.net.xml"/>
    </output>

    <processing>
        <geometry.max-grade.fix value="false"/>
    </processing>

    <tls_building>
        <tls.left-green.time value="0"/>
    </tls_building>

    <junctions>
        <rectangular-lane-cut value="true"/>
    </junctions>

    <report>
        <aggregate-warnings value="5"/>
    </report>

</configuration>
-->
<net xmlns:xsi="http://www.w3.org/2001/XMLSchema-instance" version="1.9" junctionCornerDetail="5" rectangularLaneCut="true" limitTurnSpeed="5.50" xsi:noNamespaceSchemaLocation="http://sumo.dlr.de/xsd/net_file.xsd">
  <location netOffset="111.77,101.26" convBoundary="0.00,0.00,1212.95,1302.51" origBoundary="-111.77,-101.26,1101.18,1201.26" projParameter="!"/>
  <type id="bidirectional" priority="1" speed="1.39" disallow="pedestrian tram rail_urban rail rail_electric rail_fast ship" width="3.65"/>
  <type id="border" priority="0" speed="1.39" disallow="all" discard="1" width="0.10"/>
  <type id="driving" priority="1" speed="13.89" disallow="pedestrian tram rail_urban rail rail_electric rail_fast ship" width="3.65"/>
  <type id="entry" priority="1" speed="22.22" disallow="pedestrian tram rail_urban rail rail_electric rail_fast ship" width="3.65"/>
  <type id="exit" priority="1" speed="22.22" disallow="pedestrian tram rail_urban rail rail_electric rail_fast ship" width="3.65"/>
  <type id="median" priority="0" speed="1.39" disallow="all" discard="1" width="0.10"/>
  <type id="mwyEntry" priority="1" speed="22.22" allow="private emergency authority army vip passenger hov taxi bus coach delivery truck trailer motorcycle evehicle custom1 custom2" width="3.65"/>
  <type id="mwyExit" priority="1" speed="22.22" allow="private emergency authority army vip passenger hov taxi bus coach delivery truck trailer motorcycle evehicle custom1 custom2" width="3.65"/>
  <type id="none" priority="0" speed="1.39" disallow="all" discard="1" width="1.00"/>
  <type id="offRamp" priority="1" speed="22.22" allow="private emergency authority army vip passenger hov taxi bus coach delivery truck trailer motorcycle evehicle custom1 custom2" width="3.65"/>
  <type id="onRamp" priority="1" speed="22.22" allow="private emergency authority army vip passenger hov taxi bus coach delivery truck trailer motorcycle evehicle custom1 custom2" width="3.65"/>
  <type id="parking" priority="1" speed="1.39" disallow="pedestrian tram rail_urban rail rail_electric rail_fast ship" width="2.50"/>
  <type id="rail" priority="3" speed="33.33" allow="rail_urban rail rail_electric rail_fast" width="3.65"/>
  <type id="restricted" priority="0" speed="13.89" disallow="all" width="3.65"/>
  <type id="roadWorks" priority="0" speed="1.39" allow="authority" width="3.65"/>
  <type id="shoulder" priority="0" speed="1.39" disallow="all" discard="1" width="1.00"/>
  <type id="special1" priority="1" speed="22.22" allow="custom1" discard="1" width="3.65"/>
  <type id="special2" priority="1" speed="22.22" allow="custom2" discard="1" width="3.65"/>
  <type id="special3" priority="1" speed="22.22" allow="custom1 custom2" discard="1" width="3.65"/>
  <type id="stop" priority="1" speed="13.89" disallow="pedestrian tram rail_urban rail rail_electric rail_fast ship" width="3.65"/>
  <type id="tram" priority="2" speed="13.89" allow="tram" width="3.65"/>
  <edge id=":0_0" function="internal">
    <lane id=":0_0_0" index="0" disallow="pedestrian tram rail_urban rail rail_electric rail_fast ship" speed="15.28" length="48.48" width="3.75" shape="1112.00,273.64 1100.93,280.80,0.04 1088.89,289.39,0.09 1078.55,297.16,0.13 1072.59,301.84,0.15"/>
  </edge>
  <edge id=":0_1" function="internal">
    <lane id=":0_1_0" index="0" disallow="pedestrian tram rail_urban rail rail_electric rail_fast ship" speed="22.22" length="48.61" width="3.75" shape="1112.00,273.64 1070.09,298.27"/>
    <lane id=":0_1_1" index="1" disallow="pedestrian tram rail_urban rail rail_electric rail_fast ship" speed="22.22" length="48.61" width="3.75" shape="1110.10,270.41 1068.19,295.04"/>
    <lane id=":0_1_2" index="2" disallow="pedestrian tram rail_urban rail rail_electric rail_fast ship" speed="22.22" length="48.61" width="3.75" shape="1108.20,267.17 1066.29,291.80"/>
  </edge>
  <edge id=":1_0" function="internal">
    <lane id=":1_0_0" index="0" disallow="pedestrian tram rail_urban rail rail_electric rail_fast ship" speed="16.67" length="40.32" width="3.75" shape="528.65,646.13 519.75,654.04 511.35,662.58 504.60,670.13 500.68,675.06"/>
  </edge>
  <edge id=":1_1" function="internal">
    <lane id=":1_1_0" index="0" disallow="pedestrian tram rail_urban rail rail_electric rail_fast ship" speed="22.22" length="40.56" width="3.75" shape="528.65,646.13 497.28,671.77"/>
    <lane id=":1_1_1" index="1" disallow="pedestrian tram rail_urban rail rail_electric rail_fast ship" speed="22.22" length="40.56" width="3.75" shape="526.30,643.21 494.89,668.88"/>
    <lane id=":1_1_2" index="2" disallow="pedestrian tram rail_urban rail rail_electric rail_fast ship" speed="22.22" length="40.56" width="3.75" shape="523.94,640.29 492.50,665.99"/>
  </edge>
  <edge id=":10_0" function="internal">
    <lane id=":10_0_0" index="0" disallow="pedestrian tram rail_urban rail rail_electric rail_fast ship" speed="15.28" length="41.99" width="3.75" shape="1007.49,303.50,0.09 1013.63,301.15,0.07 1023.52,297.08,0.05 1034.96,291.90,0.03 1045.72,286.23"/>
  </edge>
  <edge id=":10_1" function="internal">
    <lane id=":10_1_0" index="0" disallow="pedestrian tram rail_urban rail rail_electric rail_fast ship" speed="22.22" length="41.45" width="3.75" shape="1010.01,307.29 1045.72,286.23"/>
    <lane id=":10_1_1" index="1" disallow="pedestrian tram rail_urban rail rail_electric rail_fast ship" speed="22.22" length="41.45" width="3.75" shape="1011.92,310.52 1047.63,289.46"/>
    <lane id=":10_1_2" index="2" disallow="pedestrian tram rail_urban rail rail_electric rail_fast ship" speed="22.22" length="41.45" width="3.75" shape="1013.82,313.74 1049.53,292.69"/>
  </edge>
  <edge id=":11_0" function="internal">
    <lane id=":11_0_0" index="0" disallow="pedestrian tram rail_urban rail rail_electric rail_fast ship" speed="15.28" length="87.24" width="3.75" shape="993.99,1111.98,20.00 1003.01,1122.20,20.00 1020.58,1141.69,20.00 1039.56,1162.44,20.00 1052.79,1176.42,20.00"/>
  </edge>
  <edge id=":11_1" function="internal">
    <lane id=":11_1_0" index="0" disallow="pedestrian tram rail_urban rail rail_electric rail_fast ship" speed="22.22" length="86.98" width="3.75" shape="991.17,1115.05,20.00 1052.79,1176.42,20.00"/>
    <lane id=":11_1_1" index="1" disallow="pedestrian tram rail_urban rail rail_electric rail_fast ship" speed="22.22" length="86.98" width="3.75" shape="988.51,1117.70,20.00 1050.15,1179.08,20.00"/>
    <lane id=":11_1_2" index="2" disallow="pedestrian tram rail_urban rail rail_electric rail_fast ship" speed="22.22" length="86.98" width="3.75" shape="985.86,1120.36,20.00 1047.51,1181.74,20.00"/>
  </edge>
  <edge id=":12_0" function="internal">
    <lane id=":12_0_0" index="0" disallow="pedestrian tram rail_urban rail rail_electric rail_fast ship" speed="16.67" length="25.43" width="3.75" shape="623.44,754.67,20.00 623.29,750.32,20.00 622.02,744.86,20.00 619.27,738.46,20.00 614.71,731.28,20.00"/>
  </edge>
  <edge id=":12_1" function="internal">
    <lane id=":12_1_0" index="0" disallow="pedestrian tram rail_urban rail rail_electric rail_fast ship" speed="22.22" length="23.72" width="3.75" shape="628.93,750.29,20.00 614.71,731.28,20.00"/>
    <lane id=":12_1_1" index="1" disallow="pedestrian tram rail_urban rail rail_electric rail_fast ship" speed="22.22" length="23.72" width="3.75" shape="631.93,748.04,20.00 617.72,729.04,20.00"/>
    <lane id=":12_1_2" index="2" disallow="pedestrian tram rail_urban rail rail_electric rail_fast ship" speed="22.22" length="23.72" width="3.75" shape="634.92,745.78,20.00 620.73,726.80,20.00"/>
  </edge>
  <edge id=":13_0" function="internal">
    <lane id=":13_0_0" index="0" disallow="pedestrian tram rail_urban rail rail_electric rail_fast ship" speed="19.44" length="86.85" width="3.75" shape="459.06,668.65,0.00 528.81,616.89"/>
  </edge>
  <edge id=":13_1" function="internal">
    <lane id=":13_1_0" index="0" disallow="pedestrian tram rail_urban rail rail_electric rail_fast ship" speed="22.22" length="86.53" width="3.75" shape="461.79,671.79 528.81,616.89"/>
    <lane id=":13_1_1" index="1" disallow="pedestrian tram rail_urban rail rail_electric rail_fast ship" speed="22.22" length="86.53" width="3.75" shape="464.21,674.66 531.14,619.82"/>
    <lane id=":13_1_2" index="2" disallow="pedestrian tram rail_urban rail rail_electric rail_fast ship" speed="22.22" length="86.53" width="3.75" shape="466.62,677.53 533.47,622.76"/>
  </edge>
  <edge id=":14_0" function="internal">
    <lane id=":14_0_0" index="0" disallow="pedestrian tram rail_urban rail rail_electric rail_fast ship" speed="16.67" length="28.04" width="3.75" shape="654.36,561.34 649.81,561.70 643.81,563.21 636.61,566.22 628.47,571.08"/>
  </edge>
  <edge id=":14_1" function="internal">
    <lane id=":14_1_0" index="0" disallow="pedestrian tram rail_urban rail rail_electric rail_fast ship" speed="22.22" length="26.61" width="3.75" shape="650.41,556.10 628.47,571.08"/>
    <lane id=":14_1_1" index="1" disallow="pedestrian tram rail_urban rail rail_electric rail_fast ship" speed="22.22" length="26.61" width="3.75" shape="648.31,552.99 626.34,568.00"/>
    <lane id=":14_1_2" index="2" disallow="pedestrian tram rail_urban rail rail_electric rail_fast ship" speed="22.22" length="26.61" width="3.75" shape="646.21,549.88 624.21,564.92"/>
  </edge>
  <edge id=":14.13_0" function="internal">
    <lane id=":14.13_0_0" index="0" disallow="pedestrian tram rail_urban rail rail_electric rail_fast ship" speed="22.22" length="0.30" width="3.75" shape="695.76,799.56,20.00 695.95,799.79,20.00"/>
    <lane id=":14.13_0_1" index="1" disallow="pedestrian tram rail_urban rail rail_electric rail_fast ship" speed="22.22" length="0.30" width="3.75" shape="692.84,801.91,20.00 693.03,802.14,20.00"/>
    <lane id=":14.13_0_2" index="2" disallow="pedestrian tram rail_urban rail rail_electric rail_fast ship" speed="22.22" length="0.30" width="3.75" shape="689.93,804.27,20.00 690.12,804.50,20.00"/>
  </edge>
  <edge id=":15_0" function="internal">
    <lane id=":15_0_0" index="0" disallow="pedestrian tram rail_urban rail rail_electric rail_fast ship" speed="8.33" length="23.32" width="3.75" shape="840.92,768.40,12.00 844.81,791.39,12.04"/>
  </edge>
  <edge id=":15_1" function="internal">
    <lane id=":15_1_0" index="0" disallow="pedestrian tram rail_urban rail rail_electric rail_fast ship" speed="15.28" length="22.82" width="3.75" shape="836.94,770.05,11.99 839.22,774.45,12.00 841.58,780.44,12.01 843.59,786.57,12.03 844.81,791.39,12.04"/>
  </edge>
  <edge id=":18.17_0" function="internal">
    <lane id=":18.17_0_0" index="0" disallow="pedestrian tram rail_urban rail rail_electric rail_fast ship" speed="22.22" length="0.30" width="3.75" shape="678.25,814.09,20.00 678.06,813.85,20.00"/>
    <lane id=":18.17_0_1" index="1" disallow="pedestrian tram rail_urban rail rail_electric rail_fast ship" speed="22.22" length="0.30" width="3.75" shape="681.17,811.73,20.00 680.98,811.49,20.00"/>
    <lane id=":18.17_0_2" index="2" disallow="pedestrian tram rail_urban rail rail_electric rail_fast ship" speed="22.22" length="0.30" width="3.75" shape="684.08,809.37,20.00 683.90,809.14,20.00"/>
  </edge>
  <edge id=":2_0" function="internal">
    <lane id=":2_0_0" index="0" disallow="pedestrian tram rail_urban rail rail_electric rail_fast ship" speed="15.97" length="48.18" width="3.75" shape="193.50,911.48 202.77,902.17 212.65,891.30 221.03,881.60 225.83,875.79"/>
  </edge>
  <edge id=":2_1" function="internal">
    <lane id=":2_1_0" index="0" disallow="pedestrian tram rail_urban rail rail_electric rail_fast ship" speed="22.22" length="48.32" width="3.75" shape="193.50,911.48 229.05,878.75"/>
    <lane id=":2_1_1" index="1" disallow="pedestrian tram rail_urban rail rail_electric rail_fast ship" speed="22.22" length="48.32" width="3.75" shape="196.04,914.24 231.59,881.51"/>
    <lane id=":2_1_2" index="2" disallow="pedestrian tram rail_urban rail rail_electric rail_fast ship" speed="22.22" length="48.32" width="3.75" shape="198.58,917.00 234.13,884.28"/>
  </edge>
  <edge id=":23.22_0" function="internal">
    <lane id=":23.22_0_0" index="0" disallow="pedestrian tram rail_urban rail rail_electric rail_fast ship" speed="13.89" length="0.30" width="3.75" shape="506.52,813.44,6.79 506.24,813.36,6.78"/>
  </edge>
  <edge id=":26.25_0" function="internal">
    <lane id=":26.25_0_0" index="0" disallow="pedestrian tram rail_urban rail rail_electric rail_fast ship" speed="9.72" length="0.29" width="3.75" shape="349.04,643.95,7.94 349.05,643.66,7.96"/>
  </edge>
  <edge id=":28.27_0" function="internal">
    <lane id=":28.27_0_0" index="0" disallow="pedestrian tram rail_urban rail rail_electric rail_fast ship" speed="8.33" length="0.29" width="3.75" shape="559.51,397.72,10.23 559.80,397.78,10.22"/>
  </edge>
  <edge id=":3_0" function="internal">
    <lane id=":3_0_0" index="0" disallow="pedestrian tram rail_urban rail rail_electric rail_fast ship" speed="15.28" length="112.47" width="3.75" shape="196.88,103.03,20.00 264.50,192.91,20.00"/>
  </edge>
  <edge id=":3_1" function="internal">
    <lane id=":3_1_0" index="0" disallow="pedestrian tram rail_urban rail rail_electric rail_fast ship" speed="22.22" length="112.56" width="3.75" shape="196.88,103.03,20.00 261.26,195.35,20.00"/>
    <lane id=":3_1_1" index="1" disallow="pedestrian tram rail_urban rail rail_electric rail_fast ship" speed="22.22" length="112.56" width="3.75" shape="193.80,105.18,20.00 258.19,197.50,20.00"/>
    <lane id=":3_1_2" index="2" disallow="pedestrian tram rail_urban rail rail_electric rail_fast ship" speed="22.22" length="112.56" width="3.75" shape="190.73,107.32,20.00 255.11,199.65,20.00"/>
  </edge>
  <edge id=":3.2_0" function="internal">
    <lane id=":3.2_0_0" index="0" disallow="pedestrian tram rail_urban rail rail_electric rail_fast ship" speed="22.22" length="0.30" width="3.75" shape="599.04,591.93 598.80,592.10"/>
    <lane id=":3.2_0_1" index="1" disallow="pedestrian tram rail_urban rail rail_electric rail_fast ship" speed="22.22" length="0.30" width="3.75" shape="596.84,588.90 596.59,589.07"/>
    <lane id=":3.2_0_2" index="2" disallow="pedestrian tram rail_urban rail rail_electric rail_fast ship" speed="22.22" length="0.30" width="3.75" shape="594.63,585.86 594.39,586.04"/>
  </edge>
  <edge id=":30.29_0" function="internal">
    <lane id=":30.29_0_0" index="0" disallow="pedestrian tram rail_urban rail rail_electric rail_fast ship" speed="8.33" length="0.29" width="3.75" shape="834.07,601.37,8.12 834.05,601.66,8.13"/>
  </edge>
  <edge id=":33.32_0" function="internal">
    <lane id=":33.32_0_0" index="0" disallow="pedestrian tram rail_urban rail rail_electric rail_fast ship" speed="11.11" length="0.27" width="3.75" shape="510.73,775.72,9.57 510.94,775.89,9.60"/>
  </edge>
  <edge id=":35.34_0" function="internal">
    <lane id=":35.34_0_0" index="0" disallow="pedestrian tram rail_urban rail rail_electric rail_fast ship" speed="16.67" length="0.30" width="3.75" shape="13.60,634.94,8.89 13.70,635.22,8.88"/>
  </edge>
  <edge id=":37.36_0" function="internal">
    <lane id=":37.36_0_0" index="0" disallow="pedestrian tram rail_urban rail rail_electric rail_fast ship" speed="11.11" length="0.28" width="3.75" shape="703.34,644.87,9.94 703.36,644.59,9.91"/>
  </edge>
  <edge id=":39.38_0" function="internal">
    <lane id=":39.38_0_0" index="0" disallow="pedestrian tram rail_urban rail rail_electric rail_fast ship" speed="22.22" length="0.30" width="3.75" shape="523.16,683.84,8.46 523.45,683.90,8.47"/>
  </edge>
  <edge id=":4_0" function="internal">
    <lane id=":4_0_0" index="0" disallow="pedestrian tram rail_urban rail rail_electric rail_fast ship" speed="16.67" length="26.22" width="3.75" shape="619.17,699.10,20.00 624.81,705.93,20.00 630.03,710.92,20.00 634.69,714.29,20.00 638.60,716.29,20.00"/>
  </edge>
  <edge id=":4_1" function="internal">
    <lane id=":4_1_0" index="0" disallow="pedestrian tram rail_urban rail rail_electric rail_fast ship" speed="22.22" length="26.83" width="3.75" shape="619.17,699.10,20.00 635.15,720.64,20.00"/>
    <lane id=":4_1_1" index="1" disallow="pedestrian tram rail_urban rail rail_electric rail_fast ship" speed="22.22" length="26.83" width="3.75" shape="616.16,701.33,20.00 632.14,722.88,20.00"/>
    <lane id=":4_1_2" index="2" disallow="pedestrian tram rail_urban rail rail_electric rail_fast ship" speed="22.22" length="26.83" width="3.75" shape="613.14,703.56,20.00 629.13,725.12,20.00"/>
  </edge>
  <edge id=":5_0" function="internal">
    <lane id=":5_0_0" index="0" disallow="pedestrian tram rail_urban rail rail_electric rail_fast ship" speed="18.06" length="152.93" width="3.75" shape="1016.08,1171.99,20.00 905.37,1066.49,20.00"/>
  </edge>
  <edge id=":5_1" function="internal">
    <lane id=":5_1_0" index="0" disallow="pedestrian tram rail_urban rail rail_electric rail_fast ship" speed="22.22" length="153.05" width="3.75" shape="1016.08,1171.99,20.00 908.03,1063.53,20.00"/>
    <lane id=":5_1_1" index="1" disallow="pedestrian tram rail_urban rail rail_electric rail_fast ship" speed="22.22" length="153.05" width="3.75" shape="1018.72,1169.33,20.00 910.70,1060.90,20.00"/>
    <lane id=":5_1_2" index="2" disallow="pedestrian tram rail_urban rail rail_electric rail_fast ship" speed="22.22" length="153.05" width="3.75" shape="1021.37,1166.67,20.00 913.38,1058.27,20.00"/>
  </edge>
  <edge id=":6_0" function="internal">
    <lane id=":6_0_0" index="0" disallow="pedestrian tram rail_urban rail rail_electric rail_fast ship" speed="19.44" length="84.74" width="3.75" shape="509.36,586.60,20.00 497.92,571.60,19.96 481.04,550.20,19.90 465.18,530.39,19.85 456.79,520.14,19.82"/>
  </edge>
  <edge id=":6_1" function="internal">
    <lane id=":6_1_0" index="0" disallow="pedestrian tram rail_urban rail rail_electric rail_fast ship" speed="22.22" length="84.88" width="3.75" shape="509.36,586.60,20.00 460.03,517.51,20.00"/>
    <lane id=":6_1_1" index="1" disallow="pedestrian tram rail_urban rail rail_electric rail_fast ship" speed="22.22" length="84.88" width="3.75" shape="512.40,584.41,20.00 463.08,515.34,20.00"/>
    <lane id=":6_1_2" index="2" disallow="pedestrian tram rail_urban rail rail_electric rail_fast ship" speed="22.22" length="84.88" width="3.75" shape="515.45,582.23,20.00 466.14,513.17,20.00"/>
  </edge>
  <edge id=":7_0" function="internal">
    <lane id=":7_0_0" index="0" disallow="pedestrian tram rail_urban rail rail_electric rail_fast ship" speed="18.06" length="66.23" width="3.75" shape="265.93,881.60,0.00 257.69,887.87,0.00 242.75,899.63,0.00 226.50,912.77,0.00 214.37,923.15"/>
  </edge>
  <edge id=":7_1" function="internal">
    <lane id=":7_1_0" index="0" disallow="pedestrian tram rail_urban rail rail_electric rail_fast ship" speed="22.22" length="65.87" width="3.75" shape="262.85,878.57 214.37,923.15"/>
    <lane id=":7_1_1" index="1" disallow="pedestrian tram rail_urban rail rail_electric rail_fast ship" speed="22.22" length="65.87" width="3.75" shape="260.32,875.81 211.83,920.39"/>
    <lane id=":7_1_2" index="2" disallow="pedestrian tram rail_urban rail rail_electric rail_fast ship" speed="22.22" length="65.87" width="3.75" shape="257.79,873.04 209.29,917.63"/>
  </edge>
  <edge id=":8_0" function="internal">
    <lane id=":8_0_0" index="0" disallow="pedestrian tram rail_urban rail rail_electric rail_fast ship" speed="15.97" length="54.00" width="3.75" shape="257.59,237.55,20.00 253.64,230.09,20.00 246.41,217.15,20.00 237.99,202.75,20.00 230.43,190.90,20.00"/>
  </edge>
  <edge id=":8_1" function="internal">
    <lane id=":8_1_0" index="0" disallow="pedestrian tram rail_urban rail rail_electric rail_fast ship" speed="22.22" length="53.56" width="3.75" shape="261.09,234.82,20.00 230.43,190.90,20.00"/>
    <lane id=":8_1_1" index="1" disallow="pedestrian tram rail_urban rail rail_electric rail_fast ship" speed="22.22" length="53.56" width="3.75" shape="264.16,232.68,20.00 233.50,188.76,20.00"/>
    <lane id=":8_1_2" index="2" disallow="pedestrian tram rail_urban rail rail_electric rail_fast ship" speed="22.22" length="53.56" width="3.75" shape="267.24,230.53,20.00 236.58,186.61,20.00"/>
  </edge>
  <edge id=":9_0" function="internal">
    <lane id=":9_0_0" index="0" disallow="pedestrian tram rail_urban rail rail_electric rail_fast ship" speed="9.72" length="17.54" width="3.75" shape="338.41,683.24,6.44 344.24,666.70,6.49"/>
  </edge>
  <edge id=":9_1" function="internal">
    <lane id=":9_1_0" index="0" disallow="pedestrian tram rail_urban rail rail_electric rail_fast ship" speed="15.97" length="19.00" width="3.75" shape="338.41,683.24,6.44 340.32,679.30,6.46 343.08,674.96,6.48 346.24,670.93,6.50 349.40,667.93,6.52"/>
  </edge>
  <edge id=":9.8_0" function="internal">
    <lane id=":9.8_0_0" index="0" disallow="pedestrian tram rail_urban rail rail_electric rail_fast ship" speed="22.22" length="0.30" width="3.75" shape="585.42,573.71 585.66,573.53"/>
    <lane id=":9.8_0_1" index="1" disallow="pedestrian tram rail_urban rail rail_electric rail_fast ship" speed="22.22" length="0.30" width="3.75" shape="587.62,576.74 587.87,576.56"/>
    <lane id=":9.8_0_2" index="2" disallow="pedestrian tram rail_urban rail rail_electric rail_fast ship" speed="22.22" length="0.30" width="3.75" shape="589.83,579.77 590.07,579.60"/>
  </edge>
  <edge id="-0" from="0.begin" to="0" priority="1" type="driving" shape="1212.95,202.87 1211.94,203.49 1210.91,204.13 1209.85,204.77 1208.77,205.43 1207.66,206.11 1206.53,206.80 1205.37,207.50 1204.19,208.22 1202.98,208.95 1201.75,209.69 1200.49,210.45 1199.21,211.22 1197.91,212.00 1196.58,212.80 1195.23,213.61 1193.86,214.43 1192.46,215.27 1191.04,216.12 1189.60,216.98 1188.13,217.86 1186.64,218.74 1185.13,219.64 1183.59,220.56 1182.04,221.48 1180.46,222.42 1178.86,223.37 1177.24,224.33 1175.60,225.30 1173.94,226.29 1172.25,227.29 1170.55,228.30 1168.82,229.32 1167.08,230.35 1165.31,231.39 1163.53,232.45 1161.72,233.51 1159.90,234.59 1158.05,235.68 1156.19,236.78 1154.30,237.89 1152.40,239.01 1150.48,240.14 1148.54,241.28 1146.58,242.44 1144.60,243.60 1142.61,244.78 1140.60,245.96 1138.56,247.15 1136.52,248.36 1134.45,249.57 1132.37,250.80 1130.27,252.03 1128.15,253.28 1126.02,254.53 1123.87,255.80 1121.70,257.07 1119.52,258.35 1117.32,259.64 1115.10,260.95 1112.87,262.26 1110.62,263.58 1108.36,264.90 1106.09,266.24 1103.79,267.59">
    <lane id="-0_0" index="0" disallow="pedestrian tram rail_urban rail rail_electric rail_fast ship" speed="22.22" length="123.00" width="3.75" shape="1217.86,210.86 1216.85,211.48 1215.81,212.12 1214.74,212.77 1213.65,213.44 1212.54,214.12 1211.40,214.81 1210.23,215.52 1209.05,216.24 1207.83,216.97 1206.59,217.72 1205.33,218.48 1204.05,219.25 1202.74,220.04 1201.41,220.84 1200.05,221.65 1198.67,222.48 1197.27,223.32 1195.85,224.17 1194.40,225.03 1192.93,225.91 1191.44,226.80 1189.92,227.70 1188.39,228.61 1186.83,229.54 1185.25,230.48 1183.65,231.43 1182.03,232.39 1180.38,233.37 1178.72,234.36 1177.03,235.35 1175.32,236.36 1173.60,237.39 1171.85,238.42 1170.08,239.46 1168.29,240.52 1166.49,241.59 1164.66,242.66 1162.81,243.75 1160.95,244.85 1159.06,245.96 1157.16,247.09 1155.24,248.22 1153.30,249.36 1151.34,250.52 1149.36,251.68 1147.36,252.86 1145.35,254.04 1143.32,255.24 1141.27,256.44 1139.20,257.66 1137.12,258.88 1135.02,260.12 1132.90,261.36 1130.77,262.62 1128.62,263.88 1126.45,265.15 1124.26,266.44 1122.07,267.73 1119.85,269.03 1117.62,270.34 1115.37,271.66 1113.11,272.99 1112.00,273.64" type="driving"/>
    <lane id="-0_1" index="1" disallow="pedestrian tram rail_urban rail rail_electric rail_fast ship" speed="22.22" length="123.00" width="3.75" shape="1215.89,207.67 1214.88,208.29 1213.85,208.92 1212.79,209.57 1211.70,210.23 1210.59,210.91 1209.45,211.60 1208.29,212.31 1207.10,213.03 1205.89,213.76 1204.66,214.51 1203.40,215.27 1202.12,216.04 1200.81,216.82 1199.48,217.62 1198.12,218.43 1196.75,219.26 1195.35,220.10 1193.92,220.95 1192.48,221.81 1191.01,222.69 1189.52,223.58 1188.01,224.48 1186.47,225.39 1184.91,226.32 1183.33,227.26 1181.73,228.21 1180.11,229.17 1178.47,230.14 1176.81,231.13 1175.12,232.13 1173.41,233.14 1171.69,234.16 1169.94,235.19 1168.17,236.23 1166.39,237.29 1164.58,238.36 1162.75,239.43 1160.91,240.52 1159.04,241.62 1157.16,242.73 1155.26,243.86 1153.33,244.99 1151.39,246.13 1149.43,247.28 1147.46,248.45 1145.46,249.62 1143.45,250.81 1141.42,252.00 1139.37,253.21 1137.30,254.42 1135.22,255.65 1133.12,256.88 1131.00,258.13 1128.87,259.38 1126.72,260.65 1124.55,261.92 1122.36,263.20 1120.17,264.49 1117.95,265.80 1115.72,267.11 1113.47,268.43 1111.21,269.75 1110.10,270.41" type="driving"/>
    <lane id="-0_2" index="2" disallow="pedestrian tram rail_urban rail rail_electric rail_fast ship" speed="22.22" length="123.00" width="3.75" shape="1213.93,204.47 1212.92,205.09 1211.89,205.72 1210.83,206.37 1209.75,207.03 1208.64,207.71 1207.50,208.40 1206.34,209.10 1205.16,209.82 1203.95,210.55 1202.72,211.30 1201.46,212.05 1200.18,212.82 1198.88,213.61 1197.55,214.41 1196.20,215.22 1194.82,216.04 1193.42,216.88 1192.00,217.73 1190.56,218.59 1189.09,219.47 1187.60,220.36 1186.09,221.26 1184.55,222.17 1183.00,223.09 1181.42,224.03 1179.82,224.98 1178.20,225.94 1176.56,226.92 1174.89,227.90 1173.21,228.90 1171.50,229.91 1169.78,230.93 1168.03,231.96 1166.27,233.01 1164.48,234.06 1162.67,235.13 1160.85,236.20 1159.00,237.29 1157.14,238.39 1155.26,239.50 1153.35,240.63 1151.43,241.76 1149.49,242.90 1147.53,244.05 1145.55,245.22 1143.56,246.39 1141.55,247.58 1139.52,248.77 1137.47,249.98 1135.40,251.19 1133.32,252.42 1131.22,253.65 1129.10,254.89 1126.97,256.15 1124.82,257.41 1122.65,258.69 1120.47,259.97 1118.27,261.26 1116.05,262.56 1113.82,263.87 1111.57,265.19 1109.31,266.52 1108.20,267.17" type="driving"/>
  </edge>