<?xml version='1.0' encoding='UTF-8'?>
<!-- generated on 2022-09-06 03:41:12 by Eclipse SUMO netconvert Version 1.13.0
<configuration xmlns:xsi="http://www.w3.org/2001/XMLSchema-instance" xsi:noNamespaceSchemaLocation="http://sumo.dlr.de/xsd/netconvertConfiguration.xsd">

    <input>
        <opendrive-files value="map\15\52714161\52714161.xodr"/>
    </input>

    <output>
        <output-file value="C:\Users\LinGe\AppData\Local\Temp\tmpkr63ku91\52714161.net.xml"/>
    </output>

    <processing>
        <geometry.max-grade.fix value="false"/>
    </processing>

    <tls_building>
        <tls.left-green.time value="0"/>
    </tls_building>

    <junctions>
        <rectangular-lane-cut value="true"/>
    </junctions>

    <report>
        <aggregate-warnings value="5"/>
    </report>

</configuration>
-->
<net xmlns:xsi="http://www.w3.org/2001/XMLSchema-instance" version="1.9" junctionCornerDetail="5" rectangularLaneCut="true" limitTurnSpeed="5.50" xsi:noNamespaceSchemaLocation="http://sumo.dlr.de/xsd/net_file.xsd">
  <location netOffset="201.55,201.27" convBoundary="0.00,0.00,1109.00,1052.95" origBoundary="-201.55,-201.27,907.45,851.68" projParameter="!"/>
  <type id="bidirectional" priority="1" speed="1.39" disallow="pedestrian tram rail_urban rail rail_electric rail_fast ship" width="3.65"/>
  <type id="border" priority="0" speed="1.39" disallow="all" discard="1" width="0.10"/>
  <type id="driving" priority="1" speed="13.89" disallow="pedestrian tram rail_urban rail rail_electric rail_fast ship" width="3.65"/>
  <type id="entry" priority="1" speed="22.22" disallow="pedestrian tram rail_urban rail rail_electric rail_fast ship" width="3.65"/>
  <type id="exit" priority="1" speed="22.22" disallow="pedestrian tram rail_urban rail rail_electric rail_fast ship" width="3.65"/>
  <type id="median" priority="0" speed="1.39" disallow="all" discard="1" width="0.10"/>
  <type id="mwyEntry" priority="1" speed="22.22" allow="private emergency authority army vip passenger hov taxi bus coach delivery truck trailer motorcycle evehicle custom1 custom2" width="3.65"/>
  <type id="mwyExit" priority="1" speed="22.22" allow="private emergency authority army vip passenger hov taxi bus coach delivery truck trailer motorcycle evehicle custom1 custom2" width="3.65"/>
  <type id="none" priority="0" speed="1.39" disallow="all" discard="1" width="1.00"/>
  <type id="offRamp" priority="1" speed="22.22" allow="private emergency authority army vip passenger hov taxi bus coach delivery truck trailer motorcycle evehicle custom1 custom2" width="3.65"/>
  <type id="onRamp" priority="1" speed="22.22" allow="private emergency authority army vip passenger hov taxi bus coach delivery truck trailer motorcycle evehicle custom1 custom2" width="3.65"/>
  <type id="parking" priority="1" speed="1.39" disallow="pedestrian tram rail_urban rail rail_electric rail_fast ship" width="2.50"/>
  <type id="rail" priority="3" speed="33.33" allow="rail_urban rail rail_electric rail_fast" width="3.65"/>
  <type id="restricted" priority="0" speed="13.89" disallow="all" width="3.65"/>
  <type id="roadWorks" priority="0" speed="1.39" allow="authority" width="3.65"/>
  <type id="shoulder" priority="0" speed="1.39" disallow="all" discard="1" width="1.00"/>
  <type id="special1" priority="1" speed="22.22" allow="custom1" discard="1" width="3.65"/>
  <type id="special2" priority="1" speed="22.22" allow="custom2" discard="1" width="3.65"/>
  <type id="special3" priority="1" speed="22.22" allow="custom1 custom2" discard="1" width="3.65"/>
  <type id="stop" priority="1" speed="13.89" disallow="pedestrian tram rail_urban rail rail_electric rail_fast ship" width="3.65"/>
  <type id="tram" priority="2" speed="13.89" allow="tram" width="3.65"/>
  <edge id=":0_0" function="internal">
    <lane id=":0_0_0" index="0" disallow="pedestrian tram rail_urban rail rail_electric rail_fast ship" speed="22.22" length="37.48" width="3.75" shape="959.50,579.00 949.32,584.26,0.05 939.94,590.00,0.10 932.37,595.13,0.15 927.61,598.58,0.17"/>
  </edge>
  <edge id=":0_1" function="internal">
    <lane id=":0_1_0" index="0" disallow="pedestrian tram rail_urban rail rail_electric rail_fast ship" speed="22.22" length="37.59" width="3.75" shape="959.50,579.00 925.36,594.65"/>
    <lane id=":0_1_1" index="1" disallow="pedestrian tram rail_urban rail rail_electric rail_fast ship" speed="22.22" length="37.59" width="3.75" shape="957.95,575.59 923.78,591.24"/>
    <lane id=":0_1_2" index="2" disallow="pedestrian tram rail_urban rail rail_electric rail_fast ship" speed="22.22" length="37.59" width="3.75" shape="956.40,572.17 922.21,587.84"/>
  </edge>
  <edge id=":1_0" function="internal">
    <lane id=":1_0_0" index="0" disallow="pedestrian tram rail_urban rail rail_electric rail_fast ship" speed="19.44" length="65.91" width="3.75" shape="369.48,932.05 381.04,921.11 395.79,906.47 409.05,892.99 416.14,885.52"/>
  </edge>
  <edge id=":1_1" function="internal">
    <lane id=":1_1_0" index="0" disallow="pedestrian tram rail_urban rail rail_electric rail_fast ship" speed="22.22" length="66.15" width="3.75" shape="369.48,932.05 419.31,888.46"/>
    <lane id=":1_1_1" index="1" disallow="pedestrian tram rail_urban rail rail_electric rail_fast ship" speed="22.22" length="66.15" width="3.75" shape="371.97,934.85 421.76,891.30"/>
    <lane id=":1_1_2" index="2" disallow="pedestrian tram rail_urban rail rail_electric rail_fast ship" speed="22.22" length="66.15" width="3.75" shape="374.46,937.66 424.20,894.15"/>
  </edge>
  <edge id=":11.10_0" function="internal">
    <lane id=":11.10_0_0" index="0" disallow="pedestrian tram rail_urban rail rail_electric rail_fast ship" speed="22.22" length="0.30" width="3.75" shape="274.65,270.26,20.00 274.46,270.03,20.00"/>
    <lane id=":11.10_0_1" index="1" disallow="pedestrian tram rail_urban rail rail_electric rail_fast ship" speed="22.22" length="0.30" width="3.75" shape="277.55,267.89,20.00 277.36,267.66,20.00"/>
    <lane id=":11.10_0_2" index="2" disallow="pedestrian tram rail_urban rail rail_electric rail_fast ship" speed="22.22" length="0.30" width="3.75" shape="280.46,265.52,20.00 280.26,265.28,20.00"/>
  </edge>
  <edge id=":13.12_0" function="internal">
    <lane id=":13.12_0_0" index="0" disallow="pedestrian tram rail_urban rail rail_electric rail_fast ship" speed="16.67" length="0.30" width="3.75" shape="490.85,724.41,11.46 490.90,724.12,11.48"/>
  </edge>
  <edge id=":17.16_0" function="internal">
    <lane id=":17.16_0_0" index="0" disallow="pedestrian tram rail_urban rail rail_electric rail_fast ship" speed="9.72" length="0.14" width="3.75" shape="571.99,621.28,14.04 571.85,621.26,14.05"/>
  </edge>
  <edge id=":19.18_0" function="internal">
    <lane id=":19.18_0_0" index="0" disallow="pedestrian tram rail_urban rail rail_electric rail_fast ship" speed="22.22" length="0.30" width="3.75" shape="701.91,700.69,8.56 701.62,700.72,8.57"/>
  </edge>
  <edge id=":2_0" function="internal">
    <lane id=":2_0_0" index="0" disallow="pedestrian tram rail_urban rail rail_electric rail_fast ship" speed="15.97" length="7.98" width="3.75" shape="459.19,541.80,20.00 463.23,548.69,19.99"/>
  </edge>
  <edge id=":2.1_0" function="internal">
    <lane id=":2.1_0_0" index="0" disallow="pedestrian tram rail_urban rail rail_electric rail_fast ship" speed="22.22" length="0.30" width="3.75" shape="647.35,743.03 647.11,743.19"/>
    <lane id=":2.1_0_1" index="1" disallow="pedestrian tram rail_urban rail rail_electric rail_fast ship" speed="22.22" length="0.30" width="3.75" shape="645.32,739.88 645.07,740.04"/>
    <lane id=":2.1_0_2" index="2" disallow="pedestrian tram rail_urban rail rail_electric rail_fast ship" speed="22.22" length="0.30" width="3.75" shape="643.28,736.73 643.03,736.89"/>
  </edge>
  <edge id=":21.20_0" function="internal">
    <lane id=":21.20_0_0" index="0" disallow="pedestrian tram rail_urban rail rail_electric rail_fast ship" speed="8.33" length="0.28" width="3.75" shape="1086.44,931.28,6.99 1086.29,931.52,6.99"/>
  </edge>
  <edge id=":3_0" function="internal">
    <lane id=":3_0_0" index="0" disallow="pedestrian tram rail_urban rail rail_electric rail_fast ship" speed="19.44" length="8.06" width="3.75" shape="443.93,560.69,19.98 439.86,553.73,20.00"/>
  </edge>
  <edge id=":4_0" function="internal">
    <lane id=":4_0_0" index="0" disallow="pedestrian tram rail_urban rail rail_electric rail_fast ship" speed="15.97" length="87.64" width="3.75" shape="812.89,618.81,0.00 893.50,584.43"/>
  </edge>
  <edge id=":4_1" function="internal">
    <lane id=":4_1_0" index="0" disallow="pedestrian tram rail_urban rail rail_electric rail_fast ship" speed="22.22" length="87.30" width="3.75" shape="814.84,622.53 893.50,584.43"/>
    <lane id=":4_1_1" index="1" disallow="pedestrian tram rail_urban rail rail_electric rail_fast ship" speed="22.22" length="87.30" width="3.75" shape="816.52,625.88 895.09,587.82"/>
    <lane id=":4_1_2" index="2" disallow="pedestrian tram rail_urban rail rail_electric rail_fast ship" speed="22.22" length="87.30" width="3.75" shape="818.21,629.23 896.69,591.22"/>
  </edge>
  <edge id=":5_0" function="internal">
    <lane id=":5_0_0" index="0" disallow="pedestrian tram rail_urban rail rail_electric rail_fast ship" speed="9.72" length="2.55" width="3.75" shape="569.26,620.98,14.15 571.79,621.26,14.04"/>
  </edge>
  <edge id=":5_1" function="internal">
    <lane id=":5_1_0" index="0" disallow="pedestrian tram rail_urban rail rail_electric rail_fast ship" speed="9.03" length="3.01" width="3.75" shape="569.26,620.98,14.15 572.25,621.31,14.09"/>
  </edge>
  <edge id=":6_0" function="internal">
    <lane id=":6_0_0" index="0" disallow="pedestrian tram rail_urban rail rail_electric rail_fast ship" speed="16.67" length="24.20" width="3.75" shape="487.71,643.84,15.97 486.07,638.92,15.99 483.68,632.43,16.02 481.17,625.99,16.05 479.16,621.21,16.07"/>
  </edge>
  <edge id=":6_1" function="internal">
    <lane id=":6_1_0" index="0" disallow="pedestrian tram rail_urban rail rail_electric rail_fast ship" speed="19.44" length="23.64" width="3.75" shape="491.33,641.44,15.89 488.39,637.28,15.93 484.84,631.57,15.98 481.49,625.74,16.03 479.16,621.21,16.07"/>
  </edge>
  <edge id=":6.5_0" function="internal">
    <lane id=":6.5_0_0" index="0" disallow="pedestrian tram rail_urban rail rail_electric rail_fast ship" speed="22.22" length="0.30" width="3.75" shape="634.74,724.09 635.00,723.92"/>
    <lane id=":6.5_0_1" index="1" disallow="pedestrian tram rail_urban rail rail_electric rail_fast ship" speed="22.22" length="0.30" width="3.75" shape="636.78,727.24 637.03,727.07"/>
    <lane id=":6.5_0_2" index="2" disallow="pedestrian tram rail_urban rail rail_electric rail_fast ship" speed="22.22" length="0.30" width="3.75" shape="638.82,730.38 639.07,730.22"/>
  </edge>
  <edge id=":7_0" function="internal">
    <lane id=":7_0_0" index="0" disallow="pedestrian tram rail_urban rail rail_electric rail_fast ship" speed="15.28" length="20.65" width="3.75" shape="419.50,927.15,0.01 415.54,927.66,0.01 411.10,928.68,0.00 406.16,930.83,0.00 400.71,934.75"/>
  </edge>
  <edge id=":7_1" function="internal">
    <lane id=":7_1_0" index="0" disallow="pedestrian tram rail_urban rail rail_electric rail_fast ship" speed="22.22" length="19.00" width="3.75" shape="414.99,922.24 400.71,934.75"/>
    <lane id=":7_1_1" index="1" disallow="pedestrian tram rail_urban rail rail_electric rail_fast ship" speed="22.22" length="19.00" width="3.75" shape="412.53,919.41 398.23,931.93"/>
    <lane id=":7_1_2" index="2" disallow="pedestrian tram rail_urban rail rail_electric rail_fast ship" speed="22.22" length="19.00" width="3.75" shape="410.06,916.59 395.75,929.12"/>
  </edge>
  <edge id=":9.8_0" function="internal">
    <lane id=":9.8_0_0" index="0" disallow="pedestrian tram rail_urban rail rail_electric rail_fast ship" speed="22.22" length="0.30" width="3.75" shape="292.07,255.62,20.00 292.26,255.86,20.00"/>
    <lane id=":9.8_0_1" index="1" disallow="pedestrian tram rail_urban rail rail_electric rail_fast ship" speed="22.22" length="0.30" width="3.75" shape="289.17,258.00,20.00 289.36,258.23,20.00"/>
    <lane id=":9.8_0_2" index="2" disallow="pedestrian tram rail_urban rail rail_electric rail_fast ship" speed="22.22" length="0.30" width="3.75" shape="286.27,260.38,20.00 286.45,260.60,20.00"/>
  </edge>
  <edge id="-0" from="0.begin" to="0" priority="1" type="driving" shape="1102.63,502.95 1101.35,503.59 1100.04,504.25 1098.73,504.90 1097.39,505.56 1096.04,506.23 1094.68,506.90 1093.30,507.58 1091.91,508.26 1090.50,508.94 1089.07,509.63 1087.64,510.32 1086.18,511.02 1084.72,511.72 1083.24,512.43 1081.74,513.14 1080.23,513.86 1078.71,514.58 1077.17,515.31 1075.62,516.04 1074.05,516.77 1072.47,517.51 1070.88,518.25 1069.27,519.00 1067.65,519.75 1066.02,520.51 1064.37,521.27 1062.72,522.04 1061.04,522.81 1059.36,523.59 1057.66,524.37 1055.95,525.15 1054.23,525.94 1052.49,526.73 1050.75,527.53 1048.99,528.34 1047.21,529.14 1045.43,529.95 1043.63,530.77 1041.82,531.59 1040.00,532.42 1038.17,533.25 1036.33,534.08 1034.47,534.92 1032.61,535.76 1030.73,536.61 1028.84,537.46 1026.94,538.32 1025.03,539.18 1023.11,540.05 1021.18,540.92 1019.23,541.79 1017.28,542.67 1015.31,543.55 1013.34,544.44 1011.35,545.33 1009.36,546.23 1007.35,547.13 1005.34,548.04 1003.31,548.95 1001.28,549.86 999.23,550.78 997.18,551.71 995.11,552.63 993.04,553.57 990.95,554.50 988.86,555.45 986.76,556.39 984.65,557.34 982.53,558.30 980.40,559.26 978.26,560.22 976.12,561.19 973.96,562.16 971.80,563.14 969.63,564.12 967.45,565.11 965.26,566.10 963.06,567.09 960.86,568.09 958.65,569.09 956.43,570.10 954.20,571.11 951.97,572.13">
    <lane id="-0_0" index="0" disallow="pedestrian tram rail_urban rail rail_electric rail_fast ship" speed="22.22" length="162.01" width="3.75" shape="1106.85,511.32 1105.55,511.97 1104.23,512.63 1102.90,513.30 1101.55,513.97 1100.19,514.64 1098.81,515.32 1097.42,516.00 1096.01,516.69 1094.59,517.38 1093.15,518.07 1091.70,518.77 1090.24,519.47 1088.76,520.18 1087.27,520.89 1085.76,521.61 1084.24,522.33 1082.71,523.06 1081.16,523.79 1079.60,524.52 1078.03,525.26 1076.44,526.00 1074.84,526.75 1073.23,527.50 1071.60,528.26 1069.96,529.02 1068.31,529.78 1066.64,530.55 1064.97,531.33 1063.28,532.10 1061.57,532.89 1059.86,533.67 1058.13,534.47 1056.39,535.26 1054.64,536.06 1052.87,536.87 1051.10,537.68 1049.31,538.49 1047.51,539.31 1045.70,540.13 1043.87,540.96 1042.04,541.79 1040.19,542.62 1038.34,543.46 1036.47,544.31 1034.59,545.15 1032.70,546.01 1030.79,546.87 1028.88,547.73 1026.96,548.59 1025.02,549.46 1023.08,550.34 1021.12,551.22 1019.16,552.10 1017.18,552.99 1015.20,553.88 1013.20,554.78 1011.20,555.68 1009.18,556.59 1007.15,557.50 1005.12,558.41 1003.07,559.33 1001.02,560.26 998.96,561.18 996.88,562.12 994.80,563.05 992.71,563.99 990.61,564.94 988.50,565.89 986.38,566.84 984.25,567.80 982.12,568.77 979.97,569.73 977.82,570.71 975.66,571.68 973.49,572.66 971.31,573.65 969.13,574.64 966.93,575.63 964.73,576.63 962.52,577.63 960.31,578.64 959.50,579.00" type="driving"/>
    <lane id="-0_1" index="1" disallow="pedestrian tram rail_urban rail rail_electric rail_fast ship" speed="22.22" length="162.01" width="3.75" shape="1105.16,507.97 1103.87,508.62 1102.56,509.28 1101.23,509.94 1099.89,510.61 1098.53,511.28 1097.16,511.95 1095.77,512.63 1094.37,513.31 1092.95,514.00 1091.52,514.69 1090.08,515.39 1088.62,516.09 1087.14,516.80 1085.66,517.51 1084.15,518.22 1082.64,518.94 1081.11,519.67 1079.57,520.39 1078.01,521.13 1076.44,521.86 1074.85,522.61 1073.26,523.35 1071.65,524.10 1070.02,524.86 1068.39,525.62 1066.74,526.38 1065.07,527.15 1063.40,527.92 1061.71,528.70 1060.01,529.48 1058.29,530.27 1056.57,531.06 1054.83,531.85 1053.08,532.65 1051.32,533.45 1049.54,534.26 1047.76,535.07 1045.96,535.89 1044.15,536.71 1042.33,537.54 1040.49,538.37 1038.65,539.21 1036.79,540.04 1034.92,540.89 1033.04,541.74 1031.15,542.59 1029.25,543.45 1027.34,544.31 1025.42,545.17 1023.49,546.04 1021.54,546.92 1019.59,547.80 1017.62,548.68 1015.65,549.57 1013.66,550.46 1011.66,551.36 1009.66,552.26 1007.64,553.17 1005.62,554.08 1003.58,554.99 1001.54,555.91 999.48,556.84 997.42,557.76 995.34,558.70 993.26,559.63 991.17,560.58 989.07,561.52 986.96,562.47 984.84,563.43 982.71,564.38 980.58,565.35 978.43,566.32 976.28,567.29 974.12,568.26 971.95,569.24 969.77,570.23 967.58,571.22 965.39,572.21 963.18,573.21 960.97,574.22 958.76,575.22 957.95,575.59" type="driving"/>
    <lane id="-0_2" index="2" disallow="pedestrian tram rail_urban rail rail_electric rail_fast ship" speed="22.22" length="162.01" width="3.75" shape="1103.48,504.62 1102.19,505.27 1100.88,505.92 1099.56,506.58 1098.22,507.24 1096.87,507.91 1095.51,508.58 1094.12,509.26 1092.73,509.94 1091.32,510.63 1089.89,511.32 1088.45,512.01 1086.99,512.71 1085.53,513.42 1084.04,514.12 1082.54,514.84 1081.03,515.55 1079.51,516.28 1077.97,517.00 1076.41,517.73 1074.85,518.47 1073.27,519.21 1071.67,519.95 1070.06,520.70 1068.44,521.46 1066.81,522.21 1065.16,522.98 1063.50,523.74 1061.83,524.51 1060.14,525.29 1058.44,526.07 1056.73,526.86 1055.01,527.65 1053.27,528.44 1051.52,529.24 1049.76,530.04 1047.99,530.85 1046.20,531.66 1044.41,532.48 1042.60,533.30 1040.78,534.12 1038.95,534.95 1037.10,535.79 1035.25,536.63 1033.38,537.47 1031.50,538.32 1029.61,539.17 1027.71,540.03 1025.80,540.89 1023.88,541.76 1021.95,542.63 1020.00,543.50 1018.05,544.38 1016.08,545.26 1014.11,546.15 1012.12,547.04 1010.13,547.94 1008.12,548.84 1006.11,549.75 1004.08,550.66 1002.04,551.57 1000.00,552.49 997.94,553.42 995.88,554.34 993.81,555.28 991.72,556.21 989.63,557.16 987.53,558.10 985.42,559.05 983.30,560.01 981.17,560.97 979.03,561.93 976.89,562.90 974.73,563.87 972.57,564.85 970.40,565.83 968.22,566.81 966.03,567.80 963.84,568.80 961.64,569.80 959.42,570.80 957.20,571.81 956.40,572.17" type="driving"/>
  </edge>
  <edge id="-1" from="0" to="2.1" priority="1" type="driving" shape="951.97,572.13 950.36,572.86 948.75,573.60 947.13,574.33 945.51,575.07 943.88,575.82 942.26,576.56 940.63,577.31 938.99,578.05 937.35,578.80 935.71,579.56 934.06,580.31 932.42,581.07 930.76,581.83 929.11,582.59 927.45,583.36 925.79,584.12 924.12,584.89 922.45,585.66 920.78,586.44 919.10,587.21 917.43,587.99 915.74,588.77 914.06,589.55 912.37,590.34 910.68,591.12 908.99,591.91 907.29,592.70 905.59,593.50 903.89,594.29 902.18,595.09 900.47,595.89 898.76,596.69 897.05,597.50 895.33,598.30 893.62,599.11 891.89,599.93 890.17,600.74 888.44,601.55 886.72,602.37 884.98,603.19 883.25,604.02 881.51,604.84 879.78,605.67 878.03,606.50 876.29,607.33 874.55,608.16 872.80,609.00 871.05,609.84 869.30,610.68 867.54,611.52 865.79,612.36 864.03,613.21 862.27,614.06 860.51,614.91 858.74,615.77 856.98,616.62 855.21,617.48 853.44,618.34 851.67,619.20 849.90,620.07 848.12,620.94 846.35,621.81 844.57,622.68 842.79,623.55 841.01,624.43 839.23,625.31 837.44,626.19 835.66,627.07 833.87,627.95 832.08,628.84 830.29,629.73 828.50,630.62 826.71,631.52 824.92,632.41 823.12,633.31 821.32,634.21 819.53,635.11 817.73,636.02 815.93,636.92 814.13,637.83 812.33,638.74 810.53,639.66 808.73,640.57 806.92,641.49 805.12,642.41 803.31,643.33 801.51,644.26 799.70,645.19 797.89,646.11 796.08,647.05 794.28,647.98 792.47,648.91 790.66,649.85 788.85,650.79 787.04,651.73 785.22,652.68 783.41,653.62 781.60,654.57 779.79,655.52 777.98,656.48 776.16,657.43 774.35,658.39 772.54,659.35 770.72,660.31 768.91,661.27 767.10,662.24 765.28,663.21 763.47,664.18 761.66,665.15 759.84,666.13 758.03,667.10 756.22,668.08 754.40,669.06 752.59,670.05 750.78,671.03 748.97,672.02 747.16,673.01 745.34,674.00 743.53,675.00 741.72,675.99 739.91,676.99 738.10,677.99 736.29,679.00 734.48,680.00 732.68,681.01 730.87,682.02 729.06,683.03 727.26,684.05 725.45,685.06 723.65,686.08 721.84,687.10 720.04,688.12 718.24,689.15 716.44,690.17 714.64,691.20 712.84,692.23 711.04,693.27 709.25,694.30 707.45,695.34 705.66,696.38 703.86,697.42 702.07,698.47 700.28,699.51 698.49,700.56 696.70,701.61 694.92,702.66 693.13,703.72 691.35,704.77 689.57,705.83 687.78,706.90 686.01,707.96 684.23,709.02 682.45,710.09 680.68,711.16 678.90,712.23 677.13,713.31 675.36,714.38 673.60,715.46 671.83,716.54 670.07,717.62 668.31,718.71 666.55,719.80 664.79,720.89 663.03,721.98 661.28,723.07 659.53,724.16 657.78,725.26 656.03,726.36 654.29,727.46 652.54,728.57 650.80,729.67 649.07,730.78 647.33,731.89 645.60,733.00 643.87,734.12 642.14,735.24">
    <lane id="-1_0" index="0" disallow="pedestrian tram rail_urban rail rail_electric rail_fast ship" speed="22.22" length="315.91" width="3.75" shape="925.36,594.65 924.72,594.94 923.04,595.72 921.37,596.49 919.69,597.27 918.01,598.05 916.32,598.84 914.64,599.62 912.95,600.41 911.25,601.20 909.56,601.99 907.86,602.78 906.16,603.58 904.45,604.38 902.75,605.18 901.04,605.98 899.33,606.79 897.61,607.59 895.89,608.40 894.17,609.22 892.45,610.03 890.73,610.85 889.00,611.66 887.27,612.48 885.54,613.31 883.81,614.13 882.07,614.96 880.33,615.79 878.59,616.62 876.85,617.45 875.10,618.29 873.35,619.13 871.61,619.97 869.85,620.81 868.10,621.66 866.35,622.50 864.59,623.35 862.83,624.20 861.07,625.06 859.31,625.91 857.54,626.77 855.78,627.63 854.01,628.49 852.24,629.36 850.47,630.23 848.70,631.09 846.92,631.97 845.15,632.84 843.37,633.71 841.59,634.59 839.81,635.47 838.03,636.35 836.25,637.24 834.47,638.12 832.68,639.01 830.90,639.90 829.11,640.80 827.32,641.69 825.53,642.59 823.74,643.49 821.95,644.39 820.15,645.29 818.36,646.20 816.57,647.11 814.77,648.02 812.98,648.93 811.18,649.84 809.38,650.76 807.58,651.68 805.78,652.60 803.98,653.53 802.18,654.45 800.38,655.38 798.58,656.31 796.78,657.24 794.97,658.17 793.17,659.11 791.37,660.05 789.56,660.99 787.76,661.93 785.95,662.88 784.15,663.82 782.34,664.77 780.54,665.72 778.73,666.68 776.93,667.63 775.12,668.59 773.32,669.55 771.51,670.51 769.70,671.48 767.90,672.44 766.09,673.41 764.29,674.38 762.48,675.36 760.68,676.33 758.87,677.31 757.07,678.29 755.26,679.27 753.46,680.25 751.65,681.24 749.85,682.22 748.05,683.21 746.25,684.21 744.44,685.20 742.64,686.20 740.84,687.19 739.04,688.19 737.24,689.20 735.45,690.20 733.65,691.21 731.85,692.22 730.05,693.23 728.26,694.24 726.46,695.26 724.67,696.27 722.88,697.29 721.09,698.31 719.30,699.34 717.51,700.36 715.72,701.39 713.93,702.42 712.15,703.45 710.36,704.49 708.58,705.52 706.80,706.56 705.01,707.60 703.23,708.65 701.46,709.69 699.68,710.74 697.90,711.79 696.13,712.84 694.36,713.89 692.59,714.95 690.82,716.00 689.05,717.06 687.29,718.12 685.52,719.19 683.76,720.25 682.00,721.32 680.24,722.39 678.49,723.46 676.73,724.54 674.98,725.61 673.23,726.69 671.48,727.77 669.73,728.85 667.99,729.94 666.25,731.02 664.50,732.11 662.77,733.20 661.03,734.29 659.30,735.39 657.57,736.48 655.84,737.58 654.11,738.68 652.39,739.79 650.67,740.89 648.95,742.00 647.35,743.03" type="driving"/>
    <lane id="-1_1" index="1" disallow="pedestrian tram rail_urban rail rail_electric rail_fast ship" speed="22.22" length="315.91" width="3.75" shape="923.78,591.24 923.14,591.54 921.47,592.32 919.79,593.09 918.11,593.87 916.43,594.65 914.74,595.44 913.05,596.22 911.36,597.01 909.67,597.80 907.97,598.59 906.27,599.39 904.57,600.18 902.86,600.98 901.15,601.78 899.44,602.59 897.73,603.39 896.01,604.20 894.29,605.01 892.57,605.82 890.85,606.64 889.12,607.46 887.39,608.28 885.66,609.10 883.93,609.92 882.19,610.75 880.46,611.57 878.72,612.40 876.97,613.24 875.23,614.07 873.48,614.91 871.73,615.75 869.98,616.59 868.23,617.43 866.47,618.28 864.72,619.13 862.96,619.98 861.20,620.83 859.43,621.68 857.67,622.54 855.90,623.40 854.13,624.26 852.36,625.12 850.59,625.99 848.82,626.86 847.05,627.73 845.27,628.60 843.49,629.47 841.71,630.35 839.93,631.23 838.15,632.11 836.37,632.99 834.58,633.88 832.80,634.77 831.01,635.66 829.22,636.55 827.43,637.44 825.64,638.34 823.85,639.24 822.05,640.14 820.26,641.04 818.47,641.95 816.67,642.85 814.87,643.76 813.07,644.67 811.28,645.59 809.48,646.50 807.68,647.42 805.87,648.34 804.07,649.26 802.27,650.19 800.47,651.12 798.66,652.05 796.86,652.98 795.05,653.91 793.25,654.85 791.44,655.78 789.63,656.72 787.83,657.66 786.02,658.61 784.21,659.56 782.40,660.50 780.60,661.45 778.79,662.41 776.98,663.36 775.17,664.32 773.36,665.28 771.55,666.24 769.74,667.20 767.94,668.17 766.13,669.14 764.32,670.11 762.51,671.08 760.70,672.05 758.89,673.03 757.08,674.01 755.28,674.99 753.47,675.97 751.66,676.96 749.85,677.95 748.05,678.94 746.24,679.93 744.44,680.92 742.63,681.92 740.83,682.92 739.02,683.92 737.22,684.92 735.42,685.92 733.61,686.93 731.81,687.94 730.01,688.95 728.21,689.96 726.41,690.98 724.62,691.99 722.82,693.01 721.02,694.03 719.23,695.06 717.43,696.08 715.64,697.11 713.85,698.14 712.06,699.17 710.27,700.21 708.48,701.24 706.69,702.28 704.91,703.32 703.12,704.37 701.34,705.41 699.56,706.46 697.77,707.51 696.00,708.56 694.22,709.61 692.44,710.67 690.67,711.73 688.89,712.78 687.12,713.85 685.35,714.91 683.58,715.98 681.82,717.04 680.05,718.11 678.29,719.19 676.53,720.26 674.77,721.34 673.01,722.42 671.26,723.50 669.51,724.58 667.75,725.66 666.01,726.75 664.26,727.84 662.51,728.93 660.77,730.03 659.03,731.12 657.29,732.22 655.56,733.32 653.82,734.42 652.09,735.52 650.36,736.63 648.64,737.74 646.91,738.85 645.32,739.88" type="driving"/>
    <lane id="-1_2" index="2" disallow="pedestrian tram rail_urban rail rail_electric rail_fast ship" speed="22.22" length="315.91" width="3.75" shape="922.21,587.84 921.57,588.14 919.89,588.91 918.21,589.69 916.53,590.47 914.85,591.25 913.16,592.04 911.47,592.82 909.78,593.61 908.08,594.40 906.38,595.20 904.68,595.99 902.98,596.79 901.27,597.59 899.56,598.39 897.85,599.19 896.13,600.00 894.42,600.81 892.69,601.62 890.97,602.43 889.25,603.25 887.52,604.07 885.79,604.89 884.05,605.71 882.32,606.53 880.58,607.36 878.84,608.19 877.10,609.02 875.36,609.85 873.61,610.69 871.86,611.53 870.11,612.37 868.36,613.21 866.60,614.05 864.84,614.90 863.08,615.75 861.32,616.60 859.56,617.45 857.80,618.31 856.03,619.17 854.26,620.03 852.49,620.89 850.72,621.75 848.95,622.62 847.17,623.49 845.39,624.36 843.62,625.23 841.84,626.11 840.05,626.99 838.27,627.87 836.49,628.75 834.70,629.63 832.91,630.52 831.13,631.41 829.34,632.30 827.55,633.19 825.75,634.09 823.96,634.99 822.17,635.89 820.37,636.79 818.57,637.69 816.78,638.60 814.98,639.51 813.18,640.42 811.38,641.33 809.58,642.24 807.77,643.16 805.97,644.08 804.17,645.00 802.36,645.93 800.56,646.85 798.75,647.78 796.94,648.71 795.14,649.64 793.33,650.58 791.52,651.52 789.71,652.46 787.90,653.40 786.09,654.34 784.28,655.29 782.47,656.23 780.66,657.18 778.85,658.14 777.04,659.09 775.23,660.05 773.42,661.01 771.60,661.97 769.79,662.93 767.98,663.90 766.17,664.86 764.36,665.83 762.54,666.80 760.73,667.78 758.92,668.75 757.11,669.73 755.30,670.71 753.49,671.70 751.68,672.68 749.87,673.67 748.05,674.66 746.25,675.65 744.44,676.64 742.63,677.64 740.82,678.63 739.01,679.63 737.20,680.64 735.40,681.64 733.59,682.65 731.78,683.66 729.98,684.67 728.18,685.68 726.37,686.69 724.57,687.71 722.77,688.73 720.97,689.75 719.17,690.78 717.37,691.80 715.57,692.83 713.77,693.86 711.98,694.89 710.18,695.93 708.39,696.96 706.60,698.00 704.81,699.04 703.02,700.09 701.23,701.13 699.44,702.18 697.65,703.23 695.87,704.28 694.09,705.33 692.30,706.39 690.52,707.45 688.75,708.51 686.97,709.57 685.19,710.63 683.42,711.70 681.65,712.77 679.88,713.84 678.11,714.91 676.34,715.98 674.57,717.06 672.81,718.14 671.05,719.22 669.29,720.31 667.53,721.39 665.78,722.48 664.02,723.57 662.27,724.66 660.52,725.75 658.78,726.85 657.03,727.95 655.29,729.05 653.55,730.15 651.81,731.26 650.07,732.36 648.34,733.47 646.61,734.58 644.88,735.69 643.28,736.73" type="driving"/>
  </edge>