<?xml version="1.0" encoding="UTF-8"?>
<!--generated on 2022-09-05 15:09:17 by generate_rou.py-->
<routes xmlns:xsi="http://www.w3.org/2001/XMLSchema-instance" xsi:noNamespaceSchemaLocation="http://sumo.dlr.de/xsd/routes_file.xsd">
    <vTypeDistribution id="fastlane">
        <vType accel="3.000000" decel="3.000000" emergencyDecel="15" id="fast1" laneChangeModel="SL2015" lcAccelLat="0.5" lcCooperative="1" lcPushy="0" lcSigma="0.1" lcTimeToImpatience="1.2" length="4.3" maxSpeed="30.00" maxSpeedLat="1" minGap="2.5" minGapLat="1" sigma="0" speedFactor="normc(1,0.1,0.30,3.00)" tau="5" vClass="passenger" width="2.2"/>
        <vType accel="5.000000" decel="5.000000" emergencyDecel="15" id="fast2" laneChangeModel="SL2015" lcAccelLat="0.5" lcCooperative="1" lcPushy="0" lcSigma="0.2" lcTimeToImpatience="1.2" length="4.3" maxSpeed="33.0000" maxSpeedLat="1" minGap="2.5" minGapLat="1" sigma="0" speedFactor="normc(1,0.1,0.30,3.0)" tau="5" vClass="passenger" width="2.2"/>
    </vTypeDistribution>
    <vTypeDistribution id="middlelane">
        <vType accel="5.000000" decel="5.000000" emergencyDecel="15" id="middle_backup" laneChangeModel="SL2015" lcAccelLat="0.5" lcCooperative="1" lcPushy="0" lcSigma="0.2" lcTimeToImpatience="1.2" length="4.3" maxSpeed="26.00" maxSpeedLat="1" minGap="2.5" minGapLat="1" sigma="0" speedFactor="normc(1,0.1,0.30,2.00)" tau="5" vClass="passenger" width="2.2"/>
        <vType accel="5.000000" decel="5.000000" emergencyDecel="15" id="middle1" laneChangeModel="SL2015" lcCooperative="0" lcSpeedGain="0" length="4.3" maxSpeed="26.00" minGap="2.5" sigma="0" tau="5" vClass="passenger" width="2.2"/>
        <vType accel="5.000000" decel="5.000000" emergencyDecel="15" id="middle2" laneChangeModel="SL2015" lcAccelLat="0.5" lcCooperative="1" lcPushy="0" lcSigma="0" lcTimeToImpatience="1.2" length="9.6" maxSpeed="28.00" maxSpeedLat="1" minGap="2.5" minGapLat="1" sigma="0" speedFactor="normc(1,0.1,0.30,2.00)" tau="5" vClass="truck" width="3"/>
    </vTypeDistribution>
    <vTypeDistribution id="slowlane">
        <vType accel="5.000000" decel="5.000000" emergencyDecel="15" id="slow1" laneChangeModel="SL2015" lcAccelLat="0.5" lcCooperative="1" lcPushy="0" lcSigma="0.1" lcTimeToImpatience="1.2" length="4.3" maxSpeed="22.00" maxSpeedLat="1" minGap="2.0" minGapLat="1" sigma="0" speedFactor="normc(1,0.1,0.30,2.00)" tau="5" vClass="passenger" width="2.2"/>
        <vType accel="3.000000" decel="3.000000" emergencyDecel="15" id="slow2" laneChangeModel="SL2015" lcAccelLat="0.5" lcCooperative="1" lcPushy="0" lcSigma="0" lcTimeToImpatience="1.2" length="17.5" maxSpeed="20.00" maxSpeedLat="1" minGap="2.5" minGapLat="1" sigma="0" speedFactor="normc(1,0.1,0.20,3.00)" tau="5" vClass="truck" width="2.8"/>
    </vTypeDistribution>
    <flow begin="0" color="0.51,0.67,0.25" departLane="random" departPos="0" departSpeed="0" id="-0_-12" probability="0.05" type="middle1">
        <route edges="-0 -28 -29 -30 -31 -12"/>
    </flow>
    <flow begin="0" color="0.38,0.74,0.02" departLane="random" departPos="0" departSpeed="0" id="-0_-17" probability="0.05" type="middle1">
        <route edges="-0 -28 -34 -35 -24 -17"/>
    </flow>
    <flow begin="0" color="0.58,0.45,0.37" departLane="random" departPos="0" departSpeed="0" id="-0_-3" probability="0.05" type="middle1">
        <route edges="-0 -1 -2 -3"/>
    </flow>
    <flow begin="0" color="0.22,0.73,0.66" departLane="random" departPos="0" departSpeed="0" id="-13_-17" probability="0.05" type="middle1">
        <route edges="-13 -14 -15 -16 -17"/>
    </flow>
    <flow begin="0" color="0.05,0.0,0.69" departLane="random" departPos="0" departSpeed="0" id="-13_-3" probability="0.05" type="middle1">
        <route edges="-13 -18 -19 -20 -3"/>
    </flow>
    <flow begin="0" color="0.89,0.39,0.63" departLane="random" departPos="0" departSpeed="0" id="-13_-8" probability="0.05" type="middle1">
        <route edges="-13 -14 -15 -38 -39 -6 -7 -8"/>
    </flow>
    <flow begin="0" color="0.45,0.47,0.16" departLane="random" departPos="0" departSpeed="0" id="-4_-12" probability="0.05" type="middle1">
        <route edges="-4 -21 -32 -33 -31 -12"/>
    </flow>
    <flow begin="0" color="0.43,0.43,0.82" departLane="random" departPos="0" departSpeed="0" id="-4_-17" probability="0.05" type="middle1">
        <route edges="-4 -21 -22 -23 -24 -17"/>
    </flow>
    <flow begin="0" color="0.35,0.99,0.78" departLane="random" departPos="0" departSpeed="0" id="-4_-8" probability="0.05" type="middle1">
        <route edges="-4 -5 -6 -7 -8"/>
    </flow>
    <flow begin="0" color="0.1,0.07,0.76" departLane="random" departPos="0" departSpeed="0" id="-9_-12" probability="0.05" type="middle1">
        <route edges="-9 -10 -11 -12"/>
    </flow>
    <flow begin="0" color="0.74,0.24,0.95" departLane="random" departPos="0" departSpeed="0" id="-9_-3" probability="0.05" type="middle1">
        <route edges="-9 -25 -36 -37 -20 -3"/>
    </flow>
    <flow begin="0" color="0.95,0.03,0.44" departLane="random" departPos="0" departSpeed="0" id="-9_-8" probability="0.05" type="middle1">
        <route edges="-9 -25 -26 -27 -8"/>
    </flow>
</routes>
