<?xml version='1.0' encoding='UTF-8'?>
<!-- generated on 2022-09-06 02:41:02 by Eclipse SUMO netconvert Version 1.13.0
<configuration xmlns:xsi="http://www.w3.org/2001/XMLSchema-instance" xsi:noNamespaceSchemaLocation="http://sumo.dlr.de/xsd/netconvertConfiguration.xsd">

    <input>
        <opendrive-files value="map\16\51262633\51262633.xodr"/>
    </input>

    <output>
        <output-file value="C:\Users\LinGe\AppData\Local\Temp\tmp7_jevdhg\51262633.net.xml"/>
    </output>

    <processing>
        <geometry.max-grade.fix value="false"/>
    </processing>

    <tls_building>
        <tls.left-green.time value="0"/>
    </tls_building>

    <junctions>
        <rectangular-lane-cut value="true"/>
    </junctions>

    <report>
        <aggregate-warnings value="5"/>
    </report>

</configuration>
-->
<net xmlns:xsi="http://www.w3.org/2001/XMLSchema-instance" version="1.9" junctionCornerDetail="5" rectangularLaneCut="true" limitTurnSpeed="5.50" xsi:noNamespaceSchemaLocation="http://sumo.dlr.de/xsd/net_file.xsd">
  <location netOffset="501.02,250.52" convBoundary="0.00,0.00,1302.52,1452.00" origBoundary="-501.02,-250.52,801.51,1201.48" projParameter="!"/>
  <type id="bidirectional" priority="1" speed="1.39" disallow="pedestrian tram rail_urban rail rail_electric rail_fast ship" width="3.65"/>
  <type id="border" priority="0" speed="1.39" disallow="all" discard="1" width="0.10"/>
  <type id="driving" priority="1" speed="13.89" disallow="pedestrian tram rail_urban rail rail_electric rail_fast ship" width="3.65"/>
  <type id="entry" priority="1" speed="22.22" disallow="pedestrian tram rail_urban rail rail_electric rail_fast ship" width="3.65"/>
  <type id="exit" priority="1" speed="22.22" disallow="pedestrian tram rail_urban rail rail_electric rail_fast ship" width="3.65"/>
  <type id="median" priority="0" speed="1.39" disallow="all" discard="1" width="0.10"/>
  <type id="mwyEntry" priority="1" speed="22.22" allow="private emergency authority army vip passenger hov taxi bus coach delivery truck trailer motorcycle evehicle custom1 custom2" width="3.65"/>
  <type id="mwyExit" priority="1" speed="22.22" allow="private emergency authority army vip passenger hov taxi bus coach delivery truck trailer motorcycle evehicle custom1 custom2" width="3.65"/>
  <type id="none" priority="0" speed="1.39" disallow="all" discard="1" width="1.00"/>
  <type id="offRamp" priority="1" speed="22.22" allow="private emergency authority army vip passenger hov taxi bus coach delivery truck trailer motorcycle evehicle custom1 custom2" width="3.65"/>
  <type id="onRamp" priority="1" speed="22.22" allow="private emergency authority army vip passenger hov taxi bus coach delivery truck trailer motorcycle evehicle custom1 custom2" width="3.65"/>
  <type id="parking" priority="1" speed="1.39" disallow="pedestrian tram rail_urban rail rail_electric rail_fast ship" width="2.50"/>
  <type id="rail" priority="3" speed="33.33" allow="rail_urban rail rail_electric rail_fast" width="3.65"/>
  <type id="restricted" priority="0" speed="13.89" disallow="all" width="3.65"/>
  <type id="roadWorks" priority="0" speed="1.39" allow="authority" width="3.65"/>
  <type id="shoulder" priority="0" speed="1.39" disallow="all" discard="1" width="1.00"/>
  <type id="special1" priority="1" speed="22.22" allow="custom1" discard="1" width="3.65"/>
  <type id="special2" priority="1" speed="22.22" allow="custom2" discard="1" width="3.65"/>
  <type id="special3" priority="1" speed="22.22" allow="custom1 custom2" discard="1" width="3.65"/>
  <type id="stop" priority="1" speed="13.89" disallow="pedestrian tram rail_urban rail rail_electric rail_fast ship" width="3.65"/>
  <type id="tram" priority="2" speed="13.89" allow="tram" width="3.65"/>
  <edge id=":0_0" function="internal">
    <lane id=":0_0_0" index="0" disallow="pedestrian tram rail_urban rail rail_electric rail_fast ship" speed="16.67" length="8.02" width="3.75" shape="739.94,946.07 745.10,939.94,0.00"/>
  </edge>
  <edge id=":1_0" function="internal">
    <lane id=":1_0_0" index="0" disallow="pedestrian tram rail_urban rail rail_electric rail_fast ship" speed="13.71" length="17.44" width="3.75" shape="671.03,395.32,20.00 674.95,398.10,20.00 678.93,399.97,20.00 682.96,400.94,20.00 687.05,401.00,19.99"/>
  </edge>
  <edge id=":1_1" function="internal">
    <lane id=":1_1_0" index="0" disallow="pedestrian tram rail_urban rail rail_electric rail_fast ship" speed="22.22" length="18.23" width="3.75" shape="671.03,395.32,20.00 685.07,406.94,20.00"/>
    <lane id=":1_1_1" index="1" disallow="pedestrian tram rail_urban rail rail_electric rail_fast ship" speed="22.22" length="18.23" width="3.75" shape="668.63,398.21,20.00 682.68,409.83,20.00"/>
    <lane id=":1_1_2" index="2" disallow="pedestrian tram rail_urban rail rail_electric rail_fast ship" speed="22.22" length="18.23" width="3.75" shape="666.24,401.10,20.00 680.29,412.72,20.00"/>
  </edge>
  <edge id=":1.0_0" function="internal">
    <lane id=":1.0_0_0" index="0" disallow="pedestrian tram rail_urban rail rail_electric rail_fast ship" speed="22.22" length="0.30" width="3.75" shape="473.74,1298.18 473.51,1298.39"/>
    <lane id=":1.0_0_1" index="1" disallow="pedestrian tram rail_urban rail rail_electric rail_fast ship" speed="22.22" length="0.30" width="3.75" shape="471.22,1295.41 470.99,1295.61"/>
    <lane id=":1.0_0_2" index="2" disallow="pedestrian tram rail_urban rail rail_electric rail_fast ship" speed="22.22" length="0.30" width="3.75" shape="468.69,1292.64 468.47,1292.83"/>
  </edge>
  <edge id=":13.12_0" function="internal">
    <lane id=":13.12_0_0" index="0" disallow="pedestrian tram rail_urban rail rail_electric rail_fast ship" speed="11.11" length="0.30" width="3.75" shape="1193.02,352.28,10.15 1193.01,351.99,10.15"/>
  </edge>
  <edge id=":16.15_0" function="internal">
    <lane id=":16.15_0_0" index="0" disallow="pedestrian tram rail_urban rail rail_electric rail_fast ship" speed="8.33" length="0.28" width="3.75" shape="1279.96,396.60,9.90 1280.00,396.87,9.90"/>
  </edge>
  <edge id=":19.18_0" function="internal">
    <lane id=":19.18_0_0" index="0" disallow="pedestrian tram rail_urban rail rail_electric rail_fast ship" speed="9.72" length="0.30" width="3.75" shape="52.70,1349.14,19.03 52.84,1349.40,19.03"/>
  </edge>
  <edge id=":2_0" function="internal">
    <lane id=":2_0_0" index="0" disallow="pedestrian tram rail_urban rail rail_electric rail_fast ship" speed="20.83" length="46.95" width="3.75" shape="1065.57,817.87,20.00 1057.38,807.84,19.99 1047.79,797.29,19.99 1039.18,788.37,19.98 1033.95,783.20,19.98"/>
  </edge>
  <edge id=":2_1" function="internal">
    <lane id=":2_1_0" index="0" disallow="pedestrian tram rail_urban rail rail_electric rail_fast ship" speed="22.22" length="46.97" width="3.75" shape="1065.57,817.87,20.00 1037.32,780.45,20.00"/>
    <lane id=":2_1_1" index="1" disallow="pedestrian tram rail_urban rail rail_electric rail_fast ship" speed="22.22" length="46.97" width="3.75" shape="1068.59,815.64,20.00 1040.29,778.16,20.00"/>
    <lane id=":2_1_2" index="2" disallow="pedestrian tram rail_urban rail rail_electric rail_fast ship" speed="22.22" length="46.97" width="3.75" shape="1071.60,813.41,20.00 1043.25,775.86,20.00"/>
  </edge>
  <edge id=":21.20_0" function="internal">
    <lane id=":21.20_0_0" index="0" disallow="pedestrian tram rail_urban rail rail_electric rail_fast ship" speed="19.44" length="0.30" width="3.75" shape="713.66,167.00,14.65 713.80,166.74,14.65"/>
  </edge>
  <edge id=":3_0" function="internal">
    <lane id=":3_0_0" index="0" disallow="pedestrian tram rail_urban rail rail_electric rail_fast ship" speed="10.23" length="16.64" width="3.75" shape="742.45,441.96,19.90 741.47,446.65,19.93 741.68,450.75,19.95 743.08,454.29,19.98 745.67,457.25,20.00"/>
  </edge>
  <edge id=":3_1" function="internal">
    <lane id=":3_1_0" index="0" disallow="pedestrian tram rail_urban rail rail_electric rail_fast ship" speed="22.22" length="14.07" width="3.75" shape="734.86,448.21,20.00 745.67,457.25,20.00"/>
    <lane id=":3_1_1" index="1" disallow="pedestrian tram rail_urban rail rail_electric rail_fast ship" speed="22.22" length="14.07" width="3.75" shape="732.46,451.09,20.00 743.26,460.12,20.00"/>
    <lane id=":3_1_2" index="2" disallow="pedestrian tram rail_urban rail rail_electric rail_fast ship" speed="22.22" length="14.07" width="3.75" shape="730.06,453.97,20.00 740.85,463.00,20.00"/>
  </edge>
  <edge id=":3.2_0" function="internal">
    <lane id=":3.2_0_0" index="0" disallow="pedestrian tram rail_urban rail rail_electric rail_fast ship" speed="22.22" length="0.30" width="3.75" shape="458.22,1281.55 458.43,1281.35"/>
    <lane id=":3.2_0_1" index="1" disallow="pedestrian tram rail_urban rail rail_electric rail_fast ship" speed="22.22" length="0.30" width="3.75" shape="460.74,1284.33 460.96,1284.12"/>
    <lane id=":3.2_0_2" index="2" disallow="pedestrian tram rail_urban rail rail_electric rail_fast ship" speed="22.22" length="0.30" width="3.75" shape="463.26,1287.10 463.48,1286.90"/>
  </edge>
  <edge id=":4_0" function="internal">
    <lane id=":4_0_0" index="0" disallow="pedestrian tram rail_urban rail rail_electric rail_fast ship" speed="11.11" length="2.99" width="3.75" shape="777.15,381.55,17.92 775.41,383.99,18.02"/>
  </edge>
  <edge id=":4_1" function="internal">
    <lane id=":4_1_0" index="0" disallow="pedestrian tram rail_urban rail rail_electric rail_fast ship" speed="10.42" length="3.00" width="3.75" shape="777.15,381.55,17.92 775.40,383.99,17.97"/>
  </edge>
  <edge id=":5_0" function="internal">
    <lane id=":5_0_0" index="0" disallow="pedestrian tram rail_urban rail rail_electric rail_fast ship" speed="15.28" length="8.01" width="3.75" shape="762.23,954.98,0.00 757.01,961.06"/>
  </edge>
  <edge id=":6_0" function="internal">
    <lane id=":6_0_0" index="0" disallow="pedestrian tram rail_urban rail rail_electric rail_fast ship" speed="15.63" length="22.06" width="3.75" shape="887.70,624.39,20.00 887.25,620.31,20.00 885.85,615.63,20.00 883.04,610.49,20.00 878.31,605.04,20.00"/>
  </edge>
  <edge id=":6_1" function="internal">
    <lane id=":6_1_0" index="0" disallow="pedestrian tram rail_urban rail rail_electric rail_fast ship" speed="22.22" length="20.19" width="3.75" shape="892.83,619.01,20.00 878.31,605.04,20.00"/>
    <lane id=":6_1_1" index="1" disallow="pedestrian tram rail_urban rail rail_electric rail_fast ship" speed="22.22" length="20.19" width="3.75" shape="895.44,616.33,20.00 880.90,602.33,20.00"/>
    <lane id=":6_1_2" index="2" disallow="pedestrian tram rail_urban rail rail_electric rail_fast ship" speed="22.22" length="20.19" width="3.75" shape="898.06,613.64,20.00 883.49,599.61,20.00"/>
  </edge>
  <edge id=":7_0" function="internal">
    <lane id=":7_0_0" index="0" disallow="pedestrian tram rail_urban rail rail_electric rail_fast ship" speed="8.33" length="3.00" width="3.75" shape="1240.71,486.38,8.02 1238.94,488.80,7.97"/>
  </edge>
  <edge id=":7_1" function="internal">
    <lane id=":7_1_0" index="0" disallow="pedestrian tram rail_urban rail rail_electric rail_fast ship" speed="13.89" length="3.01" width="3.75" shape="1240.72,486.37,8.00 1238.94,488.80,7.97"/>
  </edge>
  <edge id=":7.6_0" function="internal">
    <lane id=":7.6_0_0" index="0" disallow="pedestrian tram rail_urban rail rail_electric rail_fast ship" speed="22.22" length="0.30" width="3.75" shape="996.10,694.27,20.00 996.30,694.50,20.00"/>
    <lane id=":7.6_0_1" index="1" disallow="pedestrian tram rail_urban rail rail_electric rail_fast ship" speed="22.22" length="0.30" width="3.75" shape="993.28,696.74,20.00 993.48,696.97,20.00"/>
    <lane id=":7.6_0_2" index="2" disallow="pedestrian tram rail_urban rail rail_electric rail_fast ship" speed="22.22" length="0.30" width="3.75" shape="990.46,699.21,20.00 990.65,699.43,20.00"/>
  </edge>
  <edge id=":9.10_0" function="internal">
    <lane id=":9.10_0_0" index="0" disallow="pedestrian tram rail_urban rail rail_electric rail_fast ship" speed="22.22" length="0.30" width="3.75" shape="979.18,709.48,20.00 978.98,709.25,20.00"/>
    <lane id=":9.10_0_1" index="1" disallow="pedestrian tram rail_urban rail rail_electric rail_fast ship" speed="22.22" length="0.30" width="3.75" shape="982.00,707.01,20.00 981.80,706.78,20.00"/>
    <lane id=":9.10_0_2" index="2" disallow="pedestrian tram rail_urban rail rail_electric rail_fast ship" speed="22.22" length="0.30" width="3.75" shape="984.83,704.54,20.00 984.62,704.31,20.00"/>
  </edge>
  <edge id="-0" from="5" to="1.0" priority="1" type="driving" shape="752.36,952.00 751.50,953.03 750.63,954.07 749.76,955.11 748.89,956.17 748.02,957.22 747.15,958.29 746.28,959.36 745.41,960.43 744.53,961.52 743.65,962.61 742.78,963.70 741.90,964.80 741.02,965.91 740.13,967.02 739.25,968.14 738.37,969.26 737.48,970.39 736.59,971.52 735.70,972.67 734.81,973.81 733.91,974.97 733.02,976.12 732.12,977.29 731.22,978.46 730.32,979.63 729.42,980.81 728.51,982.00 727.61,983.19 726.70,984.39 725.79,985.59 724.87,986.80 723.96,988.02 723.04,989.24 722.12,990.46 721.20,991.69 720.28,992.93 719.35,994.17 718.42,995.42 717.49,996.67 716.56,997.93 715.62,999.19 714.68,1000.46 713.74,1001.73 712.80,1003.01 711.85,1004.29 710.90,1005.58 709.95,1006.87 708.99,1008.17 708.04,1009.48 707.08,1010.78 706.12,1012.10 705.15,1013.42 704.18,1014.74 703.21,1016.07 702.24,1017.40 701.26,1018.74 700.28,1020.08 699.29,1021.43 698.31,1022.78 697.32,1024.14 696.33,1025.50 695.33,1026.87 694.33,1028.24 693.33,1029.62 692.32,1031.00 691.31,1032.39 690.30,1033.78 689.28,1035.17 688.26,1036.57 687.24,1037.98 686.21,1039.38 685.18,1040.80 684.15,1042.21 683.11,1043.64 682.07,1045.06 681.03,1046.49 679.98,1047.93 678.92,1049.37 677.87,1050.81 676.81,1052.26 675.74,1053.71 674.67,1055.17 673.60,1056.63 672.53,1058.10 671.45,1059.57 670.36,1061.04 669.27,1062.52 668.18,1064.00 667.08,1065.48 665.98,1066.97 664.88,1068.47 663.77,1069.96 662.65,1071.47 661.54,1072.97 660.41,1074.48 659.29,1076.00 658.15,1077.51 657.02,1079.03 655.88,1080.56 654.73,1082.09 653.58,1083.62 652.43,1085.16 651.27,1086.70 650.10,1088.24 648.94,1089.79 647.76,1091.34 646.58,1092.90 645.40,1094.45 644.21,1096.02 643.02,1097.58 641.82,1099.15 640.62,1100.72 639.41,1102.30 638.19,1103.88 636.98,1105.46 635.75,1107.05 634.52,1108.64 633.29,1110.23 632.05,1111.83 630.81,1113.43 629.55,1115.03 628.30,1116.64 627.04,1118.25 625.77,1119.86 624.50,1121.48 623.22,1123.09 621.94,1124.72 620.65,1126.34 619.36,1127.97 618.06,1129.60 616.75,1131.24 615.44,1132.87 614.12,1134.52 612.80,1136.16 611.47,1137.81 610.13,1139.45 608.79,1141.11 607.45,1142.76 606.09,1144.42 604.74,1146.08 603.37,1147.75 602.00,1149.41 600.62,1151.08 599.24,1152.75 597.85,1154.43 596.45,1156.10 595.05,1157.78 593.64,1159.47 592.23,1161.15 590.81,1162.84 589.38,1164.53 587.95,1166.22 586.51,1167.92 585.06,1169.62 583.60,1171.32 582.14,1173.02 580.68,1174.73 579.20,1176.43 577.72,1178.14 576.24,1179.85 574.74,1181.57 573.24,1183.29 571.73,1185.00 570.22,1186.73 568.70,1188.45 567.17,1190.18 565.63,1191.90 564.09,1193.63 562.54,1195.37 560.98,1197.10 559.42,1198.84 557.85,1200.57 556.27,1202.31 554.68,1204.06 553.09,1205.80 551.49,1207.55 549.88,1209.29 548.27,1211.04 546.64,1212.80 545.01,1214.55 543.38,1216.31 541.73,1218.06 540.08,1219.82 538.42,1221.58 536.75,1223.34 535.07,1225.11 533.39,1226.87 531.70,1228.64 530.00,1230.41 528.29,1232.18 526.58,1233.95 524.86,1235.73 523.12,1237.50 521.39,1239.28 519.64,1241.06 517.88,1242.84 516.12,1244.62 514.35,1246.40 512.57,1248.19 510.78,1249.97 508.99,1251.76 507.18,1253.55 505.37,1255.33 503.55,1257.13 501.72,1258.92 499.88,1260.71 498.04,1262.50 496.18,1264.30 494.32,1266.10 492.45,1267.89 490.57,1269.69 488.68,1271.49 486.78,1273.29 484.88,1275.09 482.96,1276.90 481.04,1278.70 479.10,1280.50 477.16,1282.31 475.21,1284.11 473.25,1285.92 471.29,1287.73 469.31,1289.54 467.32,1291.35">
    <lane id="-0_0" index="0" disallow="pedestrian tram rail_urban rail rail_electric rail_fast ship" speed="22.22" length="440.67" width="3.75" shape="757.01,961.06 756.13,962.13 755.27,963.17 754.41,964.22 753.55,965.28 752.69,966.34 751.83,967.40 750.96,968.48 750.09,969.56 749.23,970.65 748.36,971.74 747.48,972.84 746.61,973.94 745.73,975.05 744.86,976.17 743.98,977.30 743.10,978.43 742.21,979.56 741.33,980.70 740.44,981.85 739.55,983.01 738.66,984.17 737.77,985.33 736.87,986.50 735.97,987.68 735.07,988.86 734.17,990.05 733.26,991.25 732.36,992.45 731.45,993.66 730.54,994.87 729.62,996.09 728.71,997.31 727.79,998.54 726.86,999.77 725.94,1001.02 725.01,1002.26 724.08,1003.51 723.15,1004.77 722.22,1006.03 721.28,1007.30 720.34,1008.57 719.40,1009.85 718.45,1011.14 717.50,1012.43 716.55,1013.72 715.60,1015.02 714.64,1016.33 713.68,1017.64 712.71,1018.95 711.75,1020.27 710.78,1021.60 709.81,1022.93 708.83,1024.27 707.85,1025.61 706.87,1026.96 705.88,1028.31 704.89,1029.66 703.90,1031.03 702.91,1032.39 701.91,1033.76 700.90,1035.14 699.90,1036.52 698.89,1037.91 697.88,1039.30 696.86,1040.69 695.84,1042.09 694.82,1043.50 693.79,1044.91 692.76,1046.32 691.72,1047.74 690.68,1049.16 689.64,1050.59 688.60,1052.02 687.54,1053.46 686.49,1054.90 685.43,1056.35 684.37,1057.80 683.30,1059.26 682.23,1060.72 681.16,1062.18 680.08,1063.65 679.00,1065.12 677.91,1066.60 676.82,1068.08 675.72,1069.56 674.63,1071.05 673.52,1072.55 672.41,1074.05 671.30,1075.55 670.18,1077.05 669.06,1078.56 667.93,1080.08 666.80,1081.60 665.67,1083.12 664.53,1084.65 663.38,1086.18 662.23,1087.71 661.08,1089.25 659.92,1090.79 658.76,1092.34 657.59,1093.89 656.41,1095.44 655.24,1097.00 654.05,1098.56 652.86,1100.13 651.67,1101.70 650.47,1103.27 649.27,1104.84 648.06,1106.42 646.85,1108.01 645.63,1109.59 644.40,1111.18 643.17,1112.78 641.94,1114.38 640.70,1115.98 639.45,1117.58 638.20,1119.19 636.94,1120.80 635.68,1122.41 634.41,1124.03 633.14,1125.65 631.86,1127.28 630.58,1128.91 629.29,1130.54 627.99,1132.17 626.69,1133.81 625.38,1135.45 624.07,1137.09 622.75,1138.74 621.43,1140.39 620.10,1142.04 618.76,1143.70 617.42,1145.36 616.07,1147.02 614.72,1148.68 613.35,1150.35 611.99,1152.02 610.61,1153.70 609.24,1155.37 607.85,1157.05 606.46,1158.73 605.06,1160.42 603.66,1162.11 602.25,1163.80 600.83,1165.49 599.40,1167.19 597.97,1168.88 596.54,1170.59 595.09,1172.29 593.64,1174.00 592.19,1175.70 590.72,1177.42 589.26,1179.13 587.78,1180.85 586.30,1182.56 584.81,1184.28 583.31,1186.01 581.80,1187.73 580.29,1189.46 578.78,1191.19 577.25,1192.93 575.72,1194.66 574.18,1196.40 572.63,1198.14 571.08,1199.88 569.52,1201.62 567.95,1203.37 566.38,1205.12 564.80,1206.87 563.21,1208.62 561.61,1210.37 560.01,1212.13 558.40,1213.89 556.78,1215.65 555.15,1217.41 553.52,1219.17 551.87,1220.94 550.23,1222.71 548.57,1224.48 546.90,1226.25 545.23,1228.02 543.55,1229.80 541.87,1231.57 540.17,1233.35 538.47,1235.13 536.76,1236.91 535.04,1238.70 533.31,1240.48 531.57,1242.27 529.83,1244.05 528.08,1245.84 526.32,1247.63 524.55,1249.43 522.78,1251.22 520.99,1253.02 519.20,1254.81 517.40,1256.61 515.59,1258.41 513.78,1260.21 511.95,1262.01 510.12,1263.82 508.27,1265.62 506.42,1267.43 504.56,1269.23 502.70,1271.04 500.82,1272.85 498.94,1274.66 497.04,1276.47 495.14,1278.28 493.23,1280.10 491.31,1281.91 489.38,1283.73 487.44,1285.54 485.50,1287.36 483.54,1289.18 481.58,1291.00 479.60,1292.82 477.62,1294.64 475.63,1296.46 473.74,1298.18" type="driving"/>
    <lane id="-0_1" index="1" disallow="pedestrian tram rail_urban rail rail_electric rail_fast ship" speed="22.22" length="440.67" width="3.75" shape="754.12,958.67 753.23,959.74 752.37,960.79 751.51,961.85 750.64,962.91 749.78,963.98 748.91,965.05 748.04,966.13 747.17,967.22 746.29,968.31 745.42,969.41 744.54,970.51 743.67,971.62 742.79,972.74 741.91,973.86 741.02,974.99 740.14,976.12 739.25,977.26 738.36,978.41 737.47,979.56 736.58,980.72 735.68,981.88 734.79,983.05 733.89,984.23 732.99,985.41 732.09,986.60 731.18,987.79 730.27,988.99 729.36,990.19 728.45,991.40 727.54,992.62 726.62,993.84 725.70,995.06 724.78,996.30 723.86,997.53 722.93,998.78 722.00,1000.02 721.07,1001.28 720.14,1002.54 719.20,1003.80 718.26,1005.07 717.32,1006.35 716.38,1007.63 715.43,1008.91 714.48,1010.21 713.53,1011.50 712.57,1012.80 711.61,1014.11 710.65,1015.42 709.69,1016.74 708.72,1018.06 707.75,1019.39 706.78,1020.72 705.80,1022.06 704.82,1023.40 703.84,1024.75 702.85,1026.10 701.86,1027.45 700.87,1028.82 699.88,1030.18 698.88,1031.55 697.87,1032.93 696.87,1034.31 695.86,1035.70 694.85,1037.09 693.83,1038.48 692.81,1039.88 691.79,1041.29 690.76,1042.70 689.73,1044.11 688.69,1045.53 687.65,1046.95 686.61,1048.38 685.57,1049.81 684.52,1051.25 683.46,1052.69 682.41,1054.13 681.34,1055.58 680.28,1057.04 679.21,1058.50 678.14,1059.96 677.06,1061.43 675.98,1062.90 674.89,1064.37 673.80,1065.85 672.71,1067.34 671.61,1068.83 670.51,1070.32 669.40,1071.81 668.29,1073.31 667.17,1074.82 666.05,1076.33 664.93,1077.84 663.80,1079.36 662.66,1080.88 661.52,1082.40 660.38,1083.93 659.23,1085.46 658.08,1087.00 656.92,1088.54 655.76,1090.08 654.59,1091.63 653.42,1093.18 652.25,1094.74 651.06,1096.29 649.88,1097.86 648.69,1099.42 647.49,1100.99 646.29,1102.57 645.08,1104.14 643.87,1105.72 642.65,1107.31 641.43,1108.90 640.20,1110.49 638.97,1112.08 637.73,1113.68 636.49,1115.28 635.24,1116.88 633.99,1118.49 632.73,1120.10 631.46,1121.72 630.19,1123.34 628.92,1124.96 627.64,1126.58 626.35,1128.21 625.06,1129.84 623.76,1131.47 622.45,1133.11 621.14,1134.75 619.83,1136.39 618.51,1138.04 617.18,1139.69 615.84,1141.34 614.51,1143.00 613.16,1144.65 611.81,1146.32 610.45,1147.98 609.09,1149.65 607.72,1151.32 606.34,1152.99 604.96,1154.66 603.57,1156.34 602.18,1158.02 600.78,1159.71 599.37,1161.39 597.95,1163.08 596.53,1164.77 595.11,1166.47 593.67,1168.16 592.23,1169.86 590.79,1171.56 589.34,1173.27 587.88,1174.98 586.41,1176.69 584.94,1178.40 583.46,1180.11 581.97,1181.83 580.48,1183.55 578.98,1185.27 577.47,1186.99 575.96,1188.72 574.44,1190.45 572.91,1192.18 571.38,1193.91 569.83,1195.64 568.28,1197.38 566.73,1199.12 565.17,1200.86 563.59,1202.60 562.02,1204.35 560.43,1206.10 558.84,1207.85 557.24,1209.60 555.63,1211.35 554.02,1213.11 552.40,1214.86 550.77,1216.62 549.13,1218.38 547.49,1220.15 545.83,1221.91 544.17,1223.68 542.51,1225.45 540.83,1227.22 539.15,1228.99 537.46,1230.76 535.76,1232.54 534.05,1234.31 532.34,1236.09 530.62,1237.87 528.89,1239.65 527.15,1241.43 525.40,1243.22 523.65,1245.00 521.89,1246.79 520.12,1248.58 518.34,1250.37 516.55,1252.16 514.75,1253.95 512.95,1255.75 511.14,1257.54 509.32,1259.34 507.49,1261.14 505.65,1262.94 503.81,1264.74 501.95,1266.54 500.09,1268.34 498.22,1270.15 496.34,1271.95 494.45,1273.76 492.56,1275.57 490.65,1277.38 488.74,1279.18 486.81,1281.00 484.88,1282.81 482.94,1284.62 480.99,1286.43 479.03,1288.25 477.06,1290.06 475.09,1291.88 473.10,1293.69 471.22,1295.41" type="driving"/>
    <lane id="-0_2" index="2" disallow="pedestrian tram rail_urban rail rail_electric rail_fast ship" speed="22.22" length="440.67" width="3.75" shape="751.24,956.27 750.34,957.36 749.47,958.41 748.60,959.47 747.73,960.54 746.86,961.62 745.99,962.69 745.12,963.78 744.24,964.87 743.36,965.97 742.48,967.07 741.60,968.18 740.72,969.30 739.84,970.42 738.95,971.55 738.07,972.68 737.18,973.82 736.29,974.96 735.40,976.11 734.50,977.27 733.61,978.43 732.71,979.60 731.81,980.77 730.91,981.95 730.00,983.14 729.10,984.33 728.19,985.52 727.28,986.73 726.37,987.93 725.46,989.15 724.54,990.36 723.62,991.59 722.70,992.82 721.78,994.05 720.85,995.29 719.92,996.54 718.99,997.79 718.06,999.04 717.13,1000.31 716.19,1001.57 715.25,1002.84 714.30,1004.12 713.36,1005.40 712.41,1006.69 711.46,1007.98 710.51,1009.28 709.55,1010.58 708.59,1011.89 707.63,1013.21 706.66,1014.52 705.69,1015.85 704.72,1017.17 703.75,1018.51 702.77,1019.85 701.79,1021.19 700.81,1022.54 699.82,1023.89 698.83,1025.25 697.84,1026.61 696.84,1027.98 695.85,1029.35 694.84,1030.72 693.84,1032.10 692.83,1033.49 691.81,1034.88 690.80,1036.28 689.78,1037.68 688.76,1039.08 687.73,1040.49 686.70,1041.90 685.66,1043.32 684.63,1044.74 683.58,1046.17 682.54,1047.60 681.49,1049.04 680.44,1050.48 679.38,1051.92 678.32,1053.37 677.26,1054.82 676.19,1056.28 675.11,1057.74 674.04,1059.21 672.96,1060.68 671.87,1062.15 670.78,1063.63 669.69,1065.11 668.59,1066.60 667.49,1068.09 666.38,1069.58 665.27,1071.08 664.16,1072.58 663.04,1074.09 661.92,1075.60 660.79,1077.12 659.66,1078.63 658.52,1080.16 657.38,1081.68 656.23,1083.21 655.08,1084.75 653.93,1086.28 652.77,1087.83 651.60,1089.37 650.43,1090.92 649.26,1092.47 648.08,1094.03 646.89,1095.59 645.70,1097.15 644.51,1098.72 643.31,1100.29 642.11,1101.86 640.90,1103.44 639.68,1105.02 638.46,1106.61 637.24,1108.19 636.01,1109.79 634.77,1111.38 633.53,1112.98 632.28,1114.58 631.03,1116.18 629.78,1117.79 628.51,1119.40 627.25,1121.02 625.97,1122.64 624.69,1124.26 623.41,1125.88 622.12,1127.51 620.82,1129.14 619.52,1130.77 618.21,1132.41 616.90,1134.05 615.58,1135.69 614.26,1137.34 612.93,1138.98 611.59,1140.64 610.25,1142.29 608.90,1143.95 607.55,1145.61 606.19,1147.27 604.82,1148.94 603.45,1150.60 602.07,1152.28 600.68,1153.95 599.29,1155.63 597.89,1157.31 596.49,1158.99 595.08,1160.67 593.66,1162.36 592.24,1164.05 590.81,1165.74 589.38,1167.44 587.93,1169.13 586.48,1170.83 585.03,1172.54 583.57,1174.24 582.10,1175.95 580.62,1177.66 579.14,1179.37 577.65,1181.09 576.15,1182.80 574.65,1184.52 573.14,1186.24 571.62,1187.97 570.10,1189.69 568.57,1191.42 567.03,1193.15 565.49,1194.88 563.94,1196.62 562.38,1198.35 560.81,1200.09 559.24,1201.83 557.66,1203.57 556.07,1205.32 554.47,1207.07 552.87,1208.81 551.26,1210.57 549.64,1212.32 548.02,1214.07 546.39,1215.83 544.75,1217.59 543.10,1219.35 541.44,1221.11 539.78,1222.87 538.11,1224.64 536.43,1226.40 534.75,1228.17 533.05,1229.94 531.35,1231.71 529.64,1233.48 527.92,1235.26 526.20,1237.04 524.47,1238.81 522.72,1240.59 520.98,1242.37 519.22,1244.16 517.45,1245.94 515.68,1247.72 513.90,1249.51 512.11,1251.30 510.31,1253.09 508.50,1254.88 506.69,1256.67 504.86,1258.46 503.03,1260.26 501.19,1262.05 499.34,1263.85 497.49,1265.65 495.62,1267.45 493.75,1269.25 491.86,1271.05 489.97,1272.85 488.07,1274.65 486.16,1276.46 484.24,1278.26 482.32,1280.07 480.38,1281.88 478.44,1283.68 476.49,1285.49 474.52,1287.30 472.55,1289.11 470.57,1290.92 468.69,1292.64" type="driving"/>
  </edge>
  <edge id="-1" from="1.0" to="1.end" priority="1" type="driving" shape="467.32,1291.35 464.51,1293.90 461.72,1296.41 458.96,1298.89 456.23,1301.32 453.53,1303.72 450.86,1306.08 448.21,1308.41 445.58,1310.70 442.99,1312.95 440.42,1315.17 437.87,1317.35 435.35,1319.49 432.86,1321.61 430.39,1323.68 427.95,1325.73 425.53,1327.74 423.13,1329.72 420.76,1331.66 418.41,1333.57 416.09,1335.45 413.78,1337.30 411.50,1339.12 409.25,1340.90 407.01,1342.66 404.80,1344.39 402.61,1346.08 400.44,1347.75 398.29,1349.38 396.17,1350.99 394.06,1352.57 391.98,1354.13 389.91,1355.65 387.86,1357.15 385.84,1358.62 383.83,1360.06 381.84,1361.48 379.88,1362.87 377.93,1364.24 375.99,1365.58 374.08,1366.90 372.18,1368.19 370.31,1369.46 368.45,1370.71 366.60,1371.93 364.77,1373.13 362.96,1374.31 361.17,1375.46 359.39,1376.60 357.63,1377.71 355.88,1378.80 354.15,1379.87 352.43,1380.92 350.72,1381.95 349.04,1382.97 347.36,1383.96 345.70,1384.93 344.05,1385.89 342.42,1386.82 340.80,1387.74 339.19,1388.65 337.59,1389.53 336.01,1390.40 334.44,1391.25 332.88,1392.09 331.33,1392.91 329.79,1393.72 328.27,1394.51 326.75,1395.29 325.25,1396.05 323.75,1396.80 322.27,1397.54 320.79,1398.26 319.32,1398.97 317.87,1399.67 316.42,1400.36 314.98,1401.04 313.55,1401.70 312.12,1402.36 310.71,1403.00 309.30,1403.64 307.90,1404.26 306.50,1404.88 305.11,1405.48 303.73,1406.08 302.36,1406.67 300.99,1407.26 299.62,1407.83 298.27,1408.40 296.91,1408.96 295.57,1409.52 294.22,1410.07 292.88,1410.62 291.55,1411.15 290.21,1411.69 288.89,1412.22 287.56,1412.75 286.24,1413.27 284.92,1413.79 283.60,1414.31 282.29,1414.82 280.98,1415.33 279.66,1415.84 278.36,1416.35 277.05,1416.86 275.74,1417.37 274.43,1417.88 273.13,1418.38 271.82,1418.89 270.51,1419.40 269.20,1419.91 267.90,1420.42 266.59,1420.93 265.28,1421.45 263.96,1421.97 262.65,1422.49 261.34,1423.01 260.02,1423.54 258.70,1424.07 257.37,1424.61 256.05,1425.15 254.72,1425.70 253.38,1426.25 252.05,1426.81 250.70,1427.38 249.36,1427.95 248.01,1428.53 246.65,1429.11 245.29,1429.71 243.92,1430.31 242.55,1430.92 241.17,1431.54 239.79,1432.17 238.40,1432.81 237.00,1433.46 235.60,1434.12 234.18,1434.79 232.76,1435.47 231.34,1436.16 229.90,1436.86 228.46,1437.58 227.00,1438.31 225.54,1439.05 224.07,1439.81 222.59,1440.58 221.10,1441.36 219.60,1442.16 218.09,1442.97 216.57,1443.80 215.04,1444.64 213.49,1445.50 211.94,1446.38 210.37,1447.27 208.80,1448.18 207.21,1449.11 205.61,1450.05 203.99,1451.01 202.36,1452.00">