<?xml version="1.0" encoding="UTF-8"?>
<!--generated on 2022-09-05 16:03:21 by generate_rou.py-->
<routes xmlns:xsi="http://www.w3.org/2001/XMLSchema-instance" xsi:noNamespaceSchemaLocation="http://sumo.dlr.de/xsd/routes_file.xsd">
    <vTypeDistribution id="fastlane">
        <vType accel="3.000000" decel="3.000000" emergencyDecel="15" id="fast1" laneChangeModel="SL2015" lcAccelLat="0.5" lcCooperative="1" lcPushy="0" lcSigma="0.1" lcTimeToImpatience="1.2" length="4.3" maxSpeed="30.00" maxSpeedLat="1" minGap="2.5" minGapLat="1" sigma="0" speedFactor="normc(1,0.1,0.30,3.00)" tau="5" vClass="passenger" width="2.2"/>
        <vType accel="5.000000" decel="5.000000" emergencyDecel="15" id="fast2" laneChangeModel="SL2015" lcAccelLat="0.5" lcCooperative="1" lcPushy="0" lcSigma="0.2" lcTimeToImpatience="1.2" length="4.3" maxSpeed="33.0000" maxSpeedLat="1" minGap="2.5" minGapLat="1" sigma="0" speedFactor="normc(1,0.1,0.30,3.0)" tau="5" vClass="passenger" width="2.2"/>
    </vTypeDistribution>
    <vTypeDistribution id="middlelane">
        <vType accel="5.000000" decel="5.000000" emergencyDecel="15" id="middle_backup" laneChangeModel="SL2015" lcAccelLat="0.5" lcCooperative="1" lcPushy="0" lcSigma="0.2" lcTimeToImpatience="1.2" length="4.3" maxSpeed="26.00" maxSpeedLat="1" minGap="2.5" minGapLat="1" sigma="0" speedFactor="normc(1,0.1,0.30,2.00)" tau="5" vClass="passenger" width="2.2"/>
        <vType accel="5.000000" decel="5.000000" emergencyDecel="15" id="middle1" laneChangeModel="SL2015" lcCooperative="0" lcSpeedGain="0" length="4.3" maxSpeed="26.00" minGap="2.5" sigma="0" tau="5" vClass="passenger" width="2.2"/>
        <vType accel="5.000000" decel="5.000000" emergencyDecel="15" id="middle2" laneChangeModel="SL2015" lcAccelLat="0.5" lcCooperative="1" lcPushy="0" lcSigma="0" lcTimeToImpatience="1.2" length="9.6" maxSpeed="28.00" maxSpeedLat="1" minGap="2.5" minGapLat="1" sigma="0" speedFactor="normc(1,0.1,0.30,2.00)" tau="5" vClass="truck" width="3"/>
    </vTypeDistribution>
    <vTypeDistribution id="slowlane">
        <vType accel="5.000000" decel="5.000000" emergencyDecel="15" id="slow1" laneChangeModel="SL2015" lcAccelLat="0.5" lcCooperative="1" lcPushy="0" lcSigma="0.1" lcTimeToImpatience="1.2" length="4.3" maxSpeed="22.00" maxSpeedLat="1" minGap="2.0" minGapLat="1" sigma="0" speedFactor="normc(1,0.1,0.30,2.00)" tau="5" vClass="passenger" width="2.2"/>
        <vType accel="3.000000" decel="3.000000" emergencyDecel="15" id="slow2" laneChangeModel="SL2015" lcAccelLat="0.5" lcCooperative="1" lcPushy="0" lcSigma="0" lcTimeToImpatience="1.2" length="17.5" maxSpeed="20.00" maxSpeedLat="1" minGap="2.5" minGapLat="1" sigma="0" speedFactor="normc(1,0.1,0.20,3.00)" tau="5" vClass="truck" width="2.8"/>
    </vTypeDistribution>
    <flow begin="0" color="0.38,0.19,0.32" departLane="random" departPos="0" departSpeed="0" id="-0_-11" probability="0.05" type="middle1">
        <route edges="-0 -28 -29 -30 -31 -11"/>
    </flow>
    <flow begin="0" color="0.81,0.16,0.73" departLane="random" departPos="0" departSpeed="0" id="-0_-15" probability="0.05" type="middle1">
        <route edges="-0 -28 -38 -39 -23 -15"/>
    </flow>
    <flow begin="0" color="0.72,0.04,0.24" departLane="random" departPos="0" departSpeed="0" id="-0_-3" probability="0.05" type="middle1">
        <route edges="-0 -1 -2 -3"/>
    </flow>
    <flow begin="0" color="0.34,0.71,0.45" departLane="random" departPos="0" departSpeed="0" id="-12_-15" probability="0.05" type="middle1">
        <route edges="-12 -13 -14 -15"/>
    </flow>
    <flow begin="0" color="0.97,0.07,0.13" departLane="random" departPos="0" departSpeed="0" id="-12_-3" probability="0.05" type="middle1">
        <route edges="-12 -16 -17 -18 -19 -3"/>
    </flow>
    <flow begin="0" color="0.96,0.8,0.89" departLane="random" departPos="0" departSpeed="0" id="-12_-7" probability="0.05" type="middle1">
        <route edges="-12 -16 -32 -33 -27 -7"/>
    </flow>
    <flow begin="0" color="0.74,0.58,0.7" departLane="random" departPos="0" departSpeed="0" id="-4_-11" probability="0.05" type="middle1">
        <route edges="-4 -20 -34 -35 -31 -11"/>
    </flow>
    <flow begin="0" color="0.44,0.07,0.53" departLane="random" departPos="0" departSpeed="0" id="-4_-15" probability="0.05" type="middle1">
        <route edges="-4 -20 -21 -22 -23 -15"/>
    </flow>
    <flow begin="0" color="0.46,0.26,0.08" departLane="random" departPos="0" departSpeed="0" id="-4_-7" probability="0.05" type="middle1">
        <route edges="-4 -5 -6 -7"/>
    </flow>
    <flow begin="0" color="0.11,0.34,0.1" departLane="random" departPos="0" departSpeed="0" id="-8_-11" probability="0.05" type="middle1">
        <route edges="-8 -9 -10 -11"/>
    </flow>
    <flow begin="0" color="0.78,0.24,0.06" departLane="random" departPos="0" departSpeed="0" id="-8_-3" probability="0.05" type="middle1">
        <route edges="-8 -24 -36 -37 -19 -3"/>
    </flow>
    <flow begin="0" color="0.04,0.37,0.46" departLane="random" departPos="0" departSpeed="0" id="-8_-7" probability="0.05" type="middle1">
        <route edges="-8 -24 -25 -26 -27 -7"/>
    </flow>
</routes>
