<?xml version='1.0' encoding='UTF-8'?>
<!-- generated on 2022-09-06 07:06:55 by Eclipse SUMO netconvert Version 1.13.0
<configuration xmlns:xsi="http://www.w3.org/2001/XMLSchema-instance" xsi:noNamespaceSchemaLocation="http://sumo.dlr.de/xsd/netconvertConfiguration.xsd">

    <input>
        <opendrive-files value="map\17\66116615\66116615.xodr"/>
    </input>

    <output>
        <output-file value="C:\Users\LinGe\AppData\Local\Temp\tmplgimvvpn\66116615.net.xml"/>
    </output>

    <processing>
        <geometry.max-grade.fix value="false"/>
    </processing>

    <tls_building>
        <tls.left-green.time value="0"/>
    </tls_building>

    <junctions>
        <rectangular-lane-cut value="true"/>
    </junctions>

    <report>
        <aggregate-warnings value="5"/>
    </report>

</configuration>
-->
<net xmlns:xsi="http://www.w3.org/2001/XMLSchema-instance" version="1.9" junctionCornerDetail="5" rectangularLaneCut="true" limitTurnSpeed="5.50" xsi:noNamespaceSchemaLocation="http://sumo.dlr.de/xsd/net_file.xsd">
  <location netOffset="117.22,101.26" convBoundary="0.00,0.00,1218.40,1302.51" origBoundary="-117.22,-101.26,1101.18,1201.26" projParameter="!"/>
  <type id="bidirectional" priority="1" speed="1.39" disallow="pedestrian tram rail_urban rail rail_electric rail_fast ship" width="3.65"/>
  <type id="border" priority="0" speed="1.39" disallow="all" discard="1" width="0.10"/>
  <type id="driving" priority="1" speed="13.89" disallow="pedestrian tram rail_urban rail rail_electric rail_fast ship" width="3.65"/>
  <type id="entry" priority="1" speed="22.22" disallow="pedestrian tram rail_urban rail rail_electric rail_fast ship" width="3.65"/>
  <type id="exit" priority="1" speed="22.22" disallow="pedestrian tram rail_urban rail rail_electric rail_fast ship" width="3.65"/>
  <type id="median" priority="0" speed="1.39" disallow="all" discard="1" width="0.10"/>
  <type id="mwyEntry" priority="1" speed="22.22" allow="private emergency authority army vip passenger hov taxi bus coach delivery truck trailer motorcycle evehicle custom1 custom2" width="3.65"/>
  <type id="mwyExit" priority="1" speed="22.22" allow="private emergency authority army vip passenger hov taxi bus coach delivery truck trailer motorcycle evehicle custom1 custom2" width="3.65"/>
  <type id="none" priority="0" speed="1.39" disallow="all" discard="1" width="1.00"/>
  <type id="offRamp" priority="1" speed="22.22" allow="private emergency authority army vip passenger hov taxi bus coach delivery truck trailer motorcycle evehicle custom1 custom2" width="3.65"/>
  <type id="onRamp" priority="1" speed="22.22" allow="private emergency authority army vip passenger hov taxi bus coach delivery truck trailer motorcycle evehicle custom1 custom2" width="3.65"/>
  <type id="parking" priority="1" speed="1.39" disallow="pedestrian tram rail_urban rail rail_electric rail_fast ship" width="2.50"/>
  <type id="rail" priority="3" speed="33.33" allow="rail_urban rail rail_electric rail_fast" width="3.65"/>
  <type id="restricted" priority="0" speed="13.89" disallow="all" width="3.65"/>
  <type id="roadWorks" priority="0" speed="1.39" allow="authority" width="3.65"/>
  <type id="shoulder" priority="0" speed="1.39" disallow="all" discard="1" width="1.00"/>
  <type id="special1" priority="1" speed="22.22" allow="custom1" discard="1" width="3.65"/>
  <type id="special2" priority="1" speed="22.22" allow="custom2" discard="1" width="3.65"/>
  <type id="special3" priority="1" speed="22.22" allow="custom1 custom2" discard="1" width="3.65"/>
  <type id="stop" priority="1" speed="13.89" disallow="pedestrian tram rail_urban rail rail_electric rail_fast ship" width="3.65"/>
  <type id="tram" priority="2" speed="13.89" allow="tram" width="3.65"/>
  <edge id=":0_0" function="internal">
    <lane id=":0_0_0" index="0" disallow="pedestrian tram rail_urban rail rail_electric rail_fast ship" speed="15.28" length="46.45" width="3.75" shape="1067.18,303.42 1056.40,310.44,0.05 1045.00,318.71,0.11 1035.30,326.16,0.15 1029.66,330.73,0.18"/>
  </edge>
  <edge id=":0_1" function="internal">
    <lane id=":0_1_0" index="0" disallow="pedestrian tram rail_urban rail rail_electric rail_fast ship" speed="22.22" length="46.58" width="3.75" shape="1067.18,303.42 1027.09,327.12"/>
    <lane id=":0_1_1" index="1" disallow="pedestrian tram rail_urban rail rail_electric rail_fast ship" speed="22.22" length="46.58" width="3.75" shape="1065.28,300.19 1025.18,323.90"/>
    <lane id=":0_1_2" index="2" disallow="pedestrian tram rail_urban rail rail_electric rail_fast ship" speed="22.22" length="46.58" width="3.75" shape="1063.37,296.96 1023.27,320.67"/>
  </edge>
  <edge id=":1_0" function="internal">
    <lane id=":1_0_0" index="0" disallow="pedestrian tram rail_urban rail rail_electric rail_fast ship" speed="20.12" length="22.58" width="3.75" shape="265.07,855.80 270.37,850.49,0.01 273.99,845.65,0.02 276.31,841.29,0.03 277.67,837.43,0.03"/>
  </edge>
  <edge id=":1_1" function="internal">
    <lane id=":1_1_0" index="0" disallow="pedestrian tram rail_urban rail rail_electric rail_fast ship" speed="22.22" length="23.15" width="3.75" shape="265.07,855.80 282.44,840.48"/>
    <lane id=":1_1_1" index="1" disallow="pedestrian tram rail_urban rail rail_electric rail_fast ship" speed="22.22" length="23.15" width="3.75" shape="267.56,858.61 284.92,843.29"/>
    <lane id=":1_1_2" index="2" disallow="pedestrian tram rail_urban rail rail_electric rail_fast ship" speed="22.22" length="23.15" width="3.75" shape="270.04,861.42 287.40,846.11"/>
  </edge>
  <edge id=":10_0" function="internal">
    <lane id=":10_0_0" index="0" disallow="pedestrian tram rail_urban rail rail_electric rail_fast ship" speed="22.22" length="8.00" width="3.75" shape="962.66,1074.10,20.00 968.21,1079.86,20.00"/>
    <lane id=":10_0_1" index="1" disallow="pedestrian tram rail_urban rail rail_electric rail_fast ship" speed="22.22" length="8.00" width="3.75" shape="959.96,1076.71,20.00 965.52,1082.46,20.00"/>
    <lane id=":10_0_2" index="2" disallow="pedestrian tram rail_urban rail rail_electric rail_fast ship" speed="22.22" length="8.00" width="3.75" shape="957.26,1079.31,20.00 962.82,1085.07,20.00"/>
  </edge>
  <edge id=":10_3" function="internal">
    <lane id=":10_3_0" index="0" disallow="pedestrian tram rail_urban rail rail_electric rail_fast ship" speed="20.83" length="8.00" width="3.75" shape="962.66,1074.11,20.00 968.21,1079.86,20.00"/>
  </edge>
  <edge id=":11_0" function="internal">
    <lane id=":11_0_0" index="0" disallow="pedestrian tram rail_urban rail rail_electric rail_fast ship" speed="19.44" length="93.56" width="3.75" shape="461.64,680.18,0.00 536.34,623.85"/>
  </edge>
  <edge id=":11_1" function="internal">
    <lane id=":11_1_0" index="0" disallow="pedestrian tram rail_urban rail rail_electric rail_fast ship" speed="22.22" length="93.28" width="3.75" shape="464.37,683.29 536.34,623.85"/>
    <lane id=":11_1_1" index="1" disallow="pedestrian tram rail_urban rail rail_electric rail_fast ship" speed="22.22" length="93.28" width="3.75" shape="466.78,686.16 538.70,626.77"/>
    <lane id=":11_1_2" index="2" disallow="pedestrian tram rail_urban rail rail_electric rail_fast ship" speed="22.22" length="93.28" width="3.75" shape="469.19,689.03 541.06,629.68"/>
  </edge>
  <edge id=":11.10_0" function="internal">
    <lane id=":11.10_0_0" index="0" disallow="pedestrian tram rail_urban rail rail_electric rail_fast ship" speed="22.22" length="0.30" width="3.75" shape="675.81,760.54,20.00 675.99,760.77,20.00"/>
    <lane id=":11.10_0_1" index="1" disallow="pedestrian tram rail_urban rail rail_electric rail_fast ship" speed="22.22" length="0.30" width="3.75" shape="672.89,762.90,20.00 673.08,763.13,20.00"/>
    <lane id=":11.10_0_2" index="2" disallow="pedestrian tram rail_urban rail rail_electric rail_fast ship" speed="22.22" length="0.30" width="3.75" shape="669.97,765.25,20.00 670.16,765.49,20.00"/>
  </edge>
  <edge id=":16.15_0" function="internal">
    <lane id=":16.15_0_0" index="0" disallow="pedestrian tram rail_urban rail rail_electric rail_fast ship" speed="22.22" length="0.30" width="3.75" shape="658.30,775.07,20.00 658.11,774.83,20.00"/>
    <lane id=":16.15_0_1" index="1" disallow="pedestrian tram rail_urban rail rail_electric rail_fast ship" speed="22.22" length="0.30" width="3.75" shape="661.21,772.71,20.00 661.02,772.48,20.00"/>
    <lane id=":16.15_0_2" index="2" disallow="pedestrian tram rail_urban rail rail_electric rail_fast ship" speed="22.22" length="0.30" width="3.75" shape="664.13,770.36,20.00 663.94,770.12,20.00"/>
  </edge>
  <edge id=":2_0" function="internal">
    <lane id=":2_0_0" index="0" disallow="pedestrian tram rail_urban rail rail_electric rail_fast ship" speed="19.44" length="81.95" width="3.75" shape="257.60,181.51,20.00 268.65,196.26,20.00 284.80,217.01,20.00 299.96,236.16,20.00 308.03,246.10,20.00"/>
  </edge>
  <edge id=":2_1" function="internal">
    <lane id=":2_1_0" index="0" disallow="pedestrian tram rail_urban rail rail_electric rail_fast ship" speed="22.22" length="82.07" width="3.75" shape="257.60,181.51,20.00 304.73,248.69,20.00"/>
    <lane id=":2_1_1" index="1" disallow="pedestrian tram rail_urban rail rail_electric rail_fast ship" speed="22.22" length="82.07" width="3.75" shape="254.53,183.67,20.00 301.67,250.85,20.00"/>
    <lane id=":2_1_2" index="2" disallow="pedestrian tram rail_urban rail rail_electric rail_fast ship" speed="22.22" length="82.07" width="3.75" shape="251.46,185.82,20.00 298.60,253.00,20.00"/>
  </edge>
  <edge id=":2.1_0" function="internal">
    <lane id=":2.1_0_0" index="0" disallow="pedestrian tram rail_urban rail rail_electric rail_fast ship" speed="22.22" length="0.30" width="3.75" shape="644.65,568.77 644.41,568.95"/>
    <lane id=":2.1_0_1" index="1" disallow="pedestrian tram rail_urban rail rail_electric rail_fast ship" speed="22.22" length="0.30" width="3.75" shape="642.45,565.74 642.20,565.92"/>
    <lane id=":2.1_0_2" index="2" disallow="pedestrian tram rail_urban rail rail_electric rail_fast ship" speed="22.22" length="0.30" width="3.75" shape="640.24,562.71 640.00,562.88"/>
  </edge>
  <edge id=":20.19_0" function="internal">
    <lane id=":20.19_0_0" index="0" disallow="pedestrian tram rail_urban rail rail_electric rail_fast ship" speed="19.44" length="0.30" width="3.75" shape="537.16,816.26,7.47 536.87,816.18,7.46"/>
  </edge>
  <edge id=":22.21_0" function="internal">
    <lane id=":22.21_0_0" index="0" disallow="pedestrian tram rail_urban rail rail_electric rail_fast ship" speed="16.67" length="0.30" width="3.75" shape="672.30,400.80,9.19 672.60,400.84,9.18"/>
  </edge>
  <edge id=":25.24_0" function="internal">
    <lane id=":25.24_0_0" index="0" disallow="pedestrian tram rail_urban rail rail_electric rail_fast ship" speed="8.33" length="0.29" width="3.75" shape="826.95,678.23,9.00 826.95,678.52,9.01"/>
  </edge>
  <edge id=":27.26_0" function="internal">
    <lane id=":27.26_0_0" index="0" disallow="pedestrian tram rail_urban rail rail_electric rail_fast ship" speed="8.33" length="0.26" width="3.75" shape="783.16,692.58,10.99 782.90,692.58,11.00"/>
  </edge>
  <edge id=":29.28_0" function="internal">
    <lane id=":29.28_0_0" index="0" disallow="pedestrian tram rail_urban rail rail_electric rail_fast ship" speed="19.44" length="0.30" width="3.75" shape="444.53,699.75,6.92 444.81,699.85,6.93"/>
  </edge>
  <edge id=":3_0" function="internal">
    <lane id=":3_0_0" index="0" disallow="pedestrian tram rail_urban rail rail_electric rail_fast ship" speed="20.83" length="106.98" width="3.75" shape="985.59,1130.51,20.00 908.46,1056.37,20.00"/>
  </edge>
  <edge id=":3_1" function="internal">
    <lane id=":3_1_0" index="0" disallow="pedestrian tram rail_urban rail rail_electric rail_fast ship" speed="22.22" length="107.09" width="3.75" shape="985.59,1130.51,20.00 911.23,1053.41,20.00"/>
    <lane id=":3_1_1" index="1" disallow="pedestrian tram rail_urban rail rail_electric rail_fast ship" speed="22.22" length="107.09" width="3.75" shape="988.28,1127.90,20.00 913.94,1050.81,20.00"/>
    <lane id=":3_1_2" index="2" disallow="pedestrian tram rail_urban rail rail_electric rail_fast ship" speed="22.22" length="107.09" width="3.75" shape="990.97,1125.28,20.00 916.64,1048.22,20.00"/>
  </edge>
  <edge id=":31.30_0" function="internal">
    <lane id=":31.30_0_0" index="0" disallow="pedestrian tram rail_urban rail rail_electric rail_fast ship" speed="16.67" length="0.30" width="3.75" shape="18.93,652.65,8.83 19.04,652.93,8.82"/>
  </edge>
  <edge id=":4_0" function="internal">
    <lane id=":4_0_0" index="0" disallow="pedestrian tram rail_urban rail rail_electric rail_fast ship" speed="19.44" length="8.00" width="3.75" shape="503.76,568.24,20.00 499.07,561.77,20.00"/>
  </edge>
  <edge id=":4_1" function="internal">
    <lane id=":4_1_0" index="0" disallow="pedestrian tram rail_urban rail rail_electric rail_fast ship" speed="22.22" length="3.93" width="3.75" shape="503.76,568.24,20.00 501.46,565.06,20.00"/>
    <lane id=":4_1_1" index="1" disallow="pedestrian tram rail_urban rail rail_electric rail_fast ship" speed="22.22" length="3.93" width="3.75" shape="506.80,566.05,20.00 504.50,562.86,20.00"/>
    <lane id=":4_1_2" index="2" disallow="pedestrian tram rail_urban rail rail_electric rail_fast ship" speed="22.22" length="3.93" width="3.75" shape="509.84,563.85,20.00 507.54,560.67,20.00"/>
  </edge>
  <edge id=":5_0" function="internal">
    <lane id=":5_0_0" index="0" disallow="pedestrian tram rail_urban rail rail_electric rail_fast ship" speed="20.83" length="70.22" width="3.75" shape="291.89,868.20 283.06,874.72 266.86,887.11 249.34,900.84 236.54,911.40"/>
  </edge>
  <edge id=":5_1" function="internal">
    <lane id=":5_1_0" index="0" disallow="pedestrian tram rail_urban rail rail_electric rail_fast ship" speed="22.22" length="69.88" width="3.75" shape="288.88,865.11 236.54,911.40"/>
    <lane id=":5_1_1" index="1" disallow="pedestrian tram rail_urban rail rail_electric rail_fast ship" speed="22.22" length="69.88" width="3.75" shape="286.40,862.30 234.05,908.59"/>
    <lane id=":5_1_2" index="2" disallow="pedestrian tram rail_urban rail rail_electric rail_fast ship" speed="22.22" length="69.88" width="3.75" shape="283.91,859.48 231.57,905.78"/>
  </edge>
  <edge id=":6_0" function="internal">
    <lane id=":6_0_0" index="0" disallow="pedestrian tram rail_urban rail rail_electric rail_fast ship" speed="19.44" length="101.99" width="3.75" shape="973.59,327.70,0.00 1063.36,279.28"/>
  </edge>
  <edge id=":6_1" function="internal">
    <lane id=":6_1_0" index="0" disallow="pedestrian tram rail_urban rail rail_electric rail_fast ship" speed="22.22" length="101.75" width="3.75" shape="975.81,331.17 1063.36,279.28"/>
    <lane id=":6_1_1" index="1" disallow="pedestrian tram rail_urban rail rail_electric rail_fast ship" speed="22.22" length="101.75" width="3.75" shape="977.73,334.39 1065.26,282.51"/>
    <lane id=":6_1_2" index="2" disallow="pedestrian tram rail_urban rail rail_electric rail_fast ship" speed="22.22" length="101.75" width="3.75" shape="979.65,337.61 1067.17,285.74"/>
  </edge>
  <edge id=":7_0" function="internal">
    <lane id=":7_0_0" index="0" disallow="pedestrian tram rail_urban rail rail_electric rail_fast ship" speed="15.28" length="41.48" width="3.75" shape="1040.28,1147.62,19.91 1043.95,1152.97,19.92 1050.13,1161.50,19.94 1057.74,1171.25,19.97 1065.76,1180.30,20.00"/>
  </edge>
  <edge id=":7_1" function="internal">
    <lane id=":7_1_0" index="0" disallow="pedestrian tram rail_urban rail rail_electric rail_fast ship" speed="22.22" length="40.93" width="3.75" shape="1037.19,1150.99,20.00 1065.76,1180.30,20.00"/>
    <lane id=":7_1_1" index="1" disallow="pedestrian tram rail_urban rail rail_electric rail_fast ship" speed="22.22" length="40.93" width="3.75" shape="1034.51,1153.60,20.00 1063.07,1182.92,20.00"/>
    <lane id=":7_1_2" index="2" disallow="pedestrian tram rail_urban rail rail_electric rail_fast ship" speed="22.22" length="40.93" width="3.75" shape="1031.82,1156.22,20.00 1060.39,1185.54,20.00"/>
  </edge>
  <edge id=":7.6_0" function="internal">
    <lane id=":7.6_0_0" index="0" disallow="pedestrian tram rail_urban rail rail_electric rail_fast ship" speed="22.22" length="0.30" width="3.75" shape="631.03,550.55 631.27,550.37"/>
    <lane id=":7.6_0_1" index="1" disallow="pedestrian tram rail_urban rail rail_electric rail_fast ship" speed="22.22" length="0.30" width="3.75" shape="633.23,553.58 633.48,553.41"/>
    <lane id=":7.6_0_2" index="2" disallow="pedestrian tram rail_urban rail rail_electric rail_fast ship" speed="22.22" length="0.30" width="3.75" shape="635.44,556.61 635.68,556.44"/>
  </edge>
  <edge id=":8_0" function="internal">
    <lane id=":8_0_0" index="0" disallow="pedestrian tram rail_urban rail rail_electric rail_fast ship" speed="8.33" length="3.02" width="3.75" shape="854.32,570.50,6.68 853.13,573.28,6.71"/>
  </edge>
  <edge id=":8_1" function="internal">
    <lane id=":8_1_0" index="0" disallow="pedestrian tram rail_urban rail rail_electric rail_fast ship" speed="8.33" length="3.01" width="3.75" shape="854.32,570.50,6.68 853.12,573.26,6.74"/>
  </edge>
  <edge id=":9_0" function="internal">
    <lane id=":9_0_0" index="0" disallow="pedestrian tram rail_urban rail rail_electric rail_fast ship" speed="22.22" length="3.93" width="3.75" shape="501.34,564.90,20.00 499.05,561.71,20.00"/>
    <lane id=":9_0_1" index="1" disallow="pedestrian tram rail_urban rail rail_electric rail_fast ship" speed="22.22" length="3.93" width="3.75" shape="504.38,562.70,20.00 502.09,559.52,20.00"/>
    <lane id=":9_0_2" index="2" disallow="pedestrian tram rail_urban rail rail_electric rail_fast ship" speed="22.22" length="3.93" width="3.75" shape="507.43,560.51,20.00 505.13,557.32,20.00"/>
  </edge>
  <edge id=":9_3" function="internal">
    <lane id=":9_3_0" index="0" disallow="pedestrian tram rail_urban rail rail_electric rail_fast ship" speed="15.28" length="7.89" width="3.75" shape="503.76,568.03,20.00 499.05,561.71,20.00"/>
  </edge>
  <edge id="-0" from="0.begin" to="0" priority="1" type="driving" shape="1218.40,202.87 1217.44,203.47 1216.46,204.07 1215.47,204.68 1214.45,205.31 1213.41,205.94 1212.35,206.59 1211.27,207.25 1210.18,207.92 1209.06,208.59 1207.92,209.28 1206.77,209.98 1205.59,210.70 1204.40,211.42 1203.19,212.15 1201.96,212.89 1200.71,213.64 1199.44,214.41 1198.16,215.18 1196.85,215.96 1195.53,216.75 1194.19,217.56 1192.83,218.37 1191.46,219.19 1190.06,220.02 1188.65,220.86 1187.22,221.72 1185.78,222.58 1184.32,223.45 1182.84,224.33 1181.34,225.22 1179.83,226.11 1178.30,227.02 1176.76,227.94 1175.20,228.87 1173.62,229.80 1172.03,230.75 1170.42,231.70 1168.79,232.66 1167.15,233.63 1165.49,234.61 1163.82,235.60 1162.14,236.60 1160.44,237.60 1158.72,238.62 1156.99,239.64 1155.24,240.67 1153.48,241.71 1151.71,242.75 1149.92,243.81 1148.11,244.87 1146.29,245.95 1144.46,247.02 1142.62,248.11 1140.76,249.21 1138.89,250.31 1137.00,251.42 1135.10,252.54 1133.19,253.67 1131.26,254.80 1129.33,255.94 1127.37,257.09 1125.41,258.25 1123.43,259.41 1121.45,260.58 1119.44,261.76 1117.43,262.94 1115.41,264.13 1113.37,265.33 1111.32,266.54 1109.26,267.75 1107.19,268.97 1105.11,270.20 1103.01,271.43 1100.91,272.67 1098.79,273.91 1096.66,275.17 1094.53,276.42 1092.38,277.69 1090.22,278.96 1088.05,280.24 1085.87,281.52 1083.68,282.81 1081.48,284.11 1079.27,285.41 1077.05,286.72 1074.82,288.03 1072.59,289.35 1070.34,290.67 1068.08,292.00 1065.82,293.34 1063.54,294.68 1061.26,296.03 1058.97,297.38">
    <lane id="-0_0" index="0" disallow="pedestrian tram rail_urban rail rail_electric rail_fast ship" speed="22.22" length="181.45" width="3.75" shape="1223.33,210.85 1222.37,211.44 1221.38,212.05 1220.37,212.67 1219.35,213.30 1218.30,213.94 1217.24,214.59 1216.15,215.25 1215.05,215.92 1213.93,216.61 1212.79,217.30 1211.63,218.00 1210.45,218.72 1209.25,219.44 1208.03,220.18 1206.80,220.92 1205.54,221.68 1204.27,222.44 1202.98,223.22 1201.67,224.00 1200.35,224.79 1199.00,225.60 1197.64,226.41 1196.26,227.24 1194.87,228.07 1193.45,228.92 1192.02,229.77 1190.58,230.63 1189.11,231.50 1187.63,232.38 1186.13,233.27 1184.62,234.17 1183.09,235.08 1181.54,236.00 1179.98,236.93 1178.40,237.87 1176.80,238.81 1175.19,239.76 1173.57,240.73 1171.92,241.70 1170.27,242.68 1168.59,243.67 1166.91,244.67 1165.20,245.67 1163.49,246.69 1161.75,247.71 1160.01,248.74 1158.24,249.78 1156.47,250.83 1154.68,251.89 1152.87,252.95 1151.06,254.02 1149.22,255.10 1147.38,256.19 1145.52,257.28 1143.64,258.39 1141.76,259.50 1139.86,260.62 1137.95,261.74 1136.02,262.88 1134.08,264.02 1132.13,265.17 1130.17,266.32 1128.19,267.49 1126.20,268.66 1124.20,269.84 1122.19,271.02 1120.16,272.21 1118.13,273.41 1116.08,274.62 1114.02,275.83 1111.94,277.05 1109.86,278.28 1107.77,279.51 1105.66,280.75 1103.55,281.99 1101.42,283.24 1099.28,284.50 1097.13,285.77 1094.98,287.04 1092.81,288.32 1090.63,289.60 1088.44,290.89 1086.24,292.18 1084.03,293.49 1081.81,294.79 1079.58,296.11 1077.35,297.42 1075.10,298.75 1072.84,300.08 1070.58,301.42 1068.31,302.76 1067.18,303.42" type="driving"/>
    <lane id="-0_1" index="1" disallow="pedestrian tram rail_urban rail rail_electric rail_fast ship" speed="22.22" length="181.45" width="3.75" shape="1221.36,207.66 1220.40,208.25 1219.41,208.86 1218.41,209.48 1217.39,210.10 1216.35,210.74 1215.28,211.39 1214.20,212.05 1213.10,212.72 1211.98,213.40 1210.84,214.09 1209.68,214.80 1208.51,215.51 1207.31,216.23 1206.09,216.96 1204.86,217.71 1203.61,218.46 1202.34,219.23 1201.05,220.00 1199.74,220.78 1198.42,221.58 1197.08,222.38 1195.72,223.20 1194.34,224.02 1192.95,224.85 1191.53,225.69 1190.10,226.55 1188.66,227.41 1187.19,228.28 1185.71,229.16 1184.22,230.05 1182.70,230.95 1181.17,231.86 1179.63,232.78 1178.07,233.70 1176.49,234.64 1174.89,235.58 1173.28,236.54 1171.66,237.50 1170.01,238.47 1168.36,239.45 1166.69,240.44 1165.00,241.44 1163.30,242.44 1161.58,243.46 1159.85,244.48 1158.10,245.51 1156.34,246.55 1154.56,247.60 1152.77,248.66 1150.97,249.72 1149.15,250.79 1147.32,251.87 1145.47,252.96 1143.61,254.05 1141.74,255.16 1139.86,256.27 1137.96,257.39 1136.04,258.51 1134.12,259.65 1132.18,260.79 1130.23,261.94 1128.26,263.09 1126.29,264.26 1124.30,265.43 1122.30,266.60 1120.28,267.79 1118.26,268.98 1116.22,270.18 1114.17,271.39 1112.11,272.60 1110.04,273.82 1107.96,275.04 1105.87,276.28 1103.76,277.52 1101.64,278.76 1099.52,280.01 1097.38,281.27 1095.23,282.54 1093.07,283.81 1090.90,285.08 1088.72,286.37 1086.54,287.66 1084.34,288.95 1082.13,290.25 1079.91,291.56 1077.68,292.88 1075.44,294.19 1073.20,295.52 1070.94,296.85 1068.67,298.19 1066.40,299.53 1065.28,300.19" type="driving"/>
    <lane id="-0_2" index="2" disallow="pedestrian tram rail_urban rail rail_electric rail_fast ship" speed="22.22" length="181.45" width="3.75" shape="1219.39,204.47 1218.43,205.06 1217.45,205.67 1216.45,206.28 1215.43,206.91 1214.39,207.54 1213.33,208.19 1212.25,208.85 1211.15,209.52 1210.03,210.20 1208.90,210.89 1207.74,211.59 1206.56,212.30 1205.37,213.02 1204.16,213.75 1202.93,214.50 1201.68,215.25 1200.41,216.01 1199.12,216.79 1197.82,217.57 1196.49,218.36 1195.15,219.16 1193.79,219.98 1192.42,220.80 1191.02,221.63 1189.61,222.47 1188.18,223.33 1186.74,224.19 1185.28,225.06 1183.80,225.94 1182.30,226.83 1180.79,227.73 1179.26,228.63 1177.71,229.55 1176.15,230.48 1174.57,231.41 1172.98,232.36 1171.37,233.31 1169.75,234.27 1168.11,235.24 1166.45,236.22 1164.78,237.21 1163.09,238.21 1161.39,239.22 1159.67,240.23 1157.94,241.25 1156.19,242.28 1154.43,243.32 1152.66,244.37 1150.87,245.43 1149.06,246.49 1147.25,247.56 1145.42,248.64 1143.57,249.73 1141.71,250.82 1139.84,251.93 1137.95,253.04 1136.05,254.16 1134.14,255.28 1132.21,256.42 1130.28,257.56 1128.33,258.71 1126.36,259.86 1124.39,261.02 1122.40,262.20 1120.40,263.37 1118.38,264.56 1116.36,265.75 1114.32,266.95 1112.27,268.15 1110.21,269.37 1108.14,270.59 1106.06,271.81 1103.96,273.04 1101.86,274.28 1099.74,275.53 1097.61,276.78 1095.48,278.04 1093.33,279.30 1091.17,280.58 1089.00,281.85 1086.82,283.14 1084.63,284.43 1082.43,285.72 1080.22,287.02 1078.00,288.33 1075.78,289.64 1073.54,290.96 1071.29,292.29 1069.03,293.62 1066.77,294.96 1064.50,296.30 1063.37,296.96" type="driving"/>
  </edge>
  <edge id="-1" from="0" to="2.1" priority="1" type="driving" shape="1058.97,297.38 1057.34,298.34 1055.71,299.31 1054.07,300.27 1052.43,301.24 1050.79,302.21 1049.14,303.19 1047.49,304.16 1045.83,305.14 1044.17,306.12 1042.50,307.11 1040.84,308.09 1039.16,309.08 1037.49,310.07 1035.81,311.07 1034.13,312.06 1032.44,313.06 1030.75,314.06 1029.06,315.06 1027.36,316.07 1025.66,317.08 1023.95,318.09 1022.25,319.10 1020.54,320.11 1018.82,321.13 1017.11,322.15 1015.39,323.17 1013.66,324.19 1011.94,325.21 1010.21,326.24 1008.48,327.27 1006.74,328.30 1005.00,329.33 1003.26,330.37 1001.52,331.40 999.77,332.44 998.02,333.48 996.27,334.52 994.52,335.57 992.76,336.61 991.00,337.66 989.24,338.71 987.48,339.76 985.71,340.81 983.94,341.87 982.17,342.92 980.40,343.98 978.62,345.04 976.85,346.10 975.07,347.17 973.28,348.23 971.50,349.30 969.72,350.36 967.93,351.43 966.14,352.50 964.35,353.57 962.56,354.65 960.76,355.72 958.96,356.80 957.17,357.87 955.37,358.95 953.57,360.03 951.76,361.11 949.96,362.20 948.15,363.28 946.35,364.37 944.54,365.45 942.73,366.54 940.92,367.63 939.11,368.72 937.30,369.81 935.48,370.90 933.67,371.99 931.85,373.09 930.04,374.18 928.22,375.28 926.40,376.38 924.58,377.47 922.76,378.57 920.94,379.67 919.12,380.77 917.30,381.88 915.47,382.98 913.65,384.08 911.83,385.19 910.00,386.29 908.18,387.40 906.35,388.50 904.53,389.61 902.70,390.72 900.88,391.83 899.05,392.94 897.22,394.05 895.40,395.16 893.57,396.27 891.75,397.38 889.92,398.49 888.09,399.60 886.27,400.72 884.44,401.83 882.62,402.95 880.79,404.06 878.97,405.17 877.14,406.29 875.32,407.41 873.50,408.52 871.67,409.64 869.85,410.75 868.03,411.87 866.21,412.99 864.39,414.11 862.57,415.22 860.75,416.34 858.93,417.46 857.11,418.58 855.30,419.69 853.48,420.81 851.67,421.93 849.86,423.05 848.04,424.17 846.23,425.29 844.42,426.40 842.61,427.52 840.81,428.64 839.00,429.76 837.20,430.88 835.39,431.99 833.59,433.11 831.79,434.23 829.99,435.35 828.20,436.46 826.40,437.58 824.61,438.70 822.82,439.81 821.03,440.93 819.24,442.04 817.45,443.16 815.67,444.27 813.89,445.39 812.11,446.50 810.33,447.61 808.55,448.73 806.78,449.84 805.01,450.95 803.24,452.06 801.47,453.17 799.70,454.28 797.94,455.39 796.18,456.50 794.42,457.61 792.67,458.72 790.92,459.83 789.17,460.93 787.42,462.04 785.68,463.14 783.93,464.25 782.19,465.35 780.46,466.45 778.73,467.55 777.00,468.65 775.27,469.75 773.54,470.85 771.82,471.95 770.10,473.05 768.39,474.14 766.68,475.24 764.97,476.33 763.26,477.42 761.56,478.52 759.86,479.61 758.17,480.70 756.48,481.78 754.79,482.87 753.11,483.96 751.42,485.04 749.75,486.13 748.07,487.21 746.40,488.29 744.74,489.37 743.08,490.45 741.42,491.52 739.76,492.60 738.11,493.67 736.47,494.75 734.83,495.82 733.19,496.89 731.55,497.95 729.92,499.02 728.30,500.09 726.68,501.15 725.06,502.21 723.45,503.27 721.84,504.33 720.24,505.39 718.64,506.45 717.04,507.50 715.46,508.55 713.87,509.60 712.29,510.65 710.71,511.70 709.14,512.74 707.58,513.79 706.02,514.83 704.46,515.87 702.91,516.90 701.36,517.94 699.82,518.97 698.29,520.01 696.76,521.04 695.23,522.06 693.71,523.09 692.20,524.11 690.69,525.14 689.18,526.15 687.68,527.17 686.19,528.19 684.70,529.20 683.22,530.21 681.75,531.22 680.27,532.23 678.81,533.23 677.35,534.23 675.90,535.23 674.45,536.23 673.01,537.23 671.57,538.22 670.14,539.21 668.72,540.20 667.30,541.18 665.89,542.17 664.48,543.15 663.09,544.13 661.69,545.10 660.31,546.07 658.93,547.04 657.55,548.01 656.18,548.98 654.82,549.94 653.47,550.90 652.12,551.86 650.78,552.81 649.45,553.76 648.12,554.71 646.80,555.66 645.48,556.60 644.18,557.54 642.88,558.48 641.58,559.42 640.30,560.35 639.02,561.28">