<?xml version='1.0' encoding='UTF-8'?>
<!-- generated on 2022-09-06 05:05:50 by Eclipse SUMO netconvert Version 1.13.0
<configuration xmlns:xsi="http://www.w3.org/2001/XMLSchema-instance" xsi:noNamespaceSchemaLocation="http://sumo.dlr.de/xsd/netconvertConfiguration.xsd">

    <input>
        <opendrive-files value="map\1\44471627\44471627.xodr"/>
    </input>

    <output>
        <output-file value="C:\Users\LinGe\AppData\Local\Temp\tmpil7q7r1k\44471627.net.xml"/>
    </output>

    <processing>
        <geometry.max-grade.fix value="false"/>
    </processing>

    <tls_building>
        <tls.left-green.time value="0"/>
    </tls_building>

    <junctions>
        <rectangular-lane-cut value="true"/>
    </junctions>

    <report>
        <aggregate-warnings value="5"/>
    </report>

</configuration>
-->
<net xmlns:xsi="http://www.w3.org/2001/XMLSchema-instance" version="1.9" junctionCornerDetail="5" rectangularLaneCut="true" limitTurnSpeed="5.50" xsi:noNamespaceSchemaLocation="http://sumo.dlr.de/xsd/net_file.xsd">
  <location netOffset="1.56,101.26" convBoundary="0.00,0.00,1102.73,1302.51" origBoundary="-1.56,-101.26,1101.18,1201.26" projParameter="!"/>
  <type id="bidirectional" priority="1" speed="1.39" disallow="pedestrian tram rail_urban rail rail_electric rail_fast ship" width="3.65"/>
  <type id="border" priority="0" speed="1.39" disallow="all" discard="1" width="0.10"/>
  <type id="driving" priority="1" speed="13.89" disallow="pedestrian tram rail_urban rail rail_electric rail_fast ship" width="3.65"/>
  <type id="entry" priority="1" speed="22.22" disallow="pedestrian tram rail_urban rail rail_electric rail_fast ship" width="3.65"/>
  <type id="exit" priority="1" speed="22.22" disallow="pedestrian tram rail_urban rail rail_electric rail_fast ship" width="3.65"/>
  <type id="median" priority="0" speed="1.39" disallow="all" discard="1" width="0.10"/>
  <type id="mwyEntry" priority="1" speed="22.22" allow="private emergency authority army vip passenger hov taxi bus coach delivery truck trailer motorcycle evehicle custom1 custom2" width="3.65"/>
  <type id="mwyExit" priority="1" speed="22.22" allow="private emergency authority army vip passenger hov taxi bus coach delivery truck trailer motorcycle evehicle custom1 custom2" width="3.65"/>
  <type id="none" priority="0" speed="1.39" disallow="all" discard="1" width="1.00"/>
  <type id="offRamp" priority="1" speed="22.22" allow="private emergency authority army vip passenger hov taxi bus coach delivery truck trailer motorcycle evehicle custom1 custom2" width="3.65"/>
  <type id="onRamp" priority="1" speed="22.22" allow="private emergency authority army vip passenger hov taxi bus coach delivery truck trailer motorcycle evehicle custom1 custom2" width="3.65"/>
  <type id="parking" priority="1" speed="1.39" disallow="pedestrian tram rail_urban rail rail_electric rail_fast ship" width="2.50"/>
  <type id="rail" priority="3" speed="33.33" allow="rail_urban rail rail_electric rail_fast" width="3.65"/>
  <type id="restricted" priority="0" speed="13.89" disallow="all" width="3.65"/>
  <type id="roadWorks" priority="0" speed="1.39" allow="authority" width="3.65"/>
  <type id="shoulder" priority="0" speed="1.39" disallow="all" discard="1" width="1.00"/>
  <type id="special1" priority="1" speed="22.22" allow="custom1" discard="1" width="3.65"/>
  <type id="special2" priority="1" speed="22.22" allow="custom2" discard="1" width="3.65"/>
  <type id="special3" priority="1" speed="22.22" allow="custom1 custom2" discard="1" width="3.65"/>
  <type id="stop" priority="1" speed="13.89" disallow="pedestrian tram rail_urban rail rail_electric rail_fast ship" width="3.65"/>
  <type id="tram" priority="2" speed="13.89" allow="tram" width="3.65"/>
  <edge id=":0_0" function="internal">
    <lane id=":0_0_0" index="0" disallow="pedestrian tram rail_urban rail rail_electric rail_fast ship" speed="18.06" length="44.26" width="3.75" shape="985.62,280.61 975.01,287.26,0.03 964.10,294.94,0.06 954.94,301.84,0.09 949.54,306.18,0.10"/>
  </edge>
  <edge id=":0_1" function="internal">
    <lane id=":0_1_0" index="0" disallow="pedestrian tram rail_urban rail rail_electric rail_fast ship" speed="22.22" length="44.42" width="3.75" shape="985.62,280.61 946.98,302.49"/>
    <lane id=":0_1_1" index="1" disallow="pedestrian tram rail_urban rail rail_electric rail_fast ship" speed="22.22" length="44.42" width="3.75" shape="983.78,277.35 945.12,299.23"/>
    <lane id=":0_1_2" index="2" disallow="pedestrian tram rail_urban rail rail_electric rail_fast ship" speed="22.22" length="44.42" width="3.75" shape="981.93,274.08 943.27,295.97"/>
  </edge>
  <edge id=":1_0" function="internal">
    <lane id=":1_0_0" index="0" disallow="pedestrian tram rail_urban rail rail_electric rail_fast ship" speed="15.97" length="32.12" width="3.75" shape="424.61,655.08 416.77,662.24 410.60,669.02 406.17,674.83 403.52,679.11"/>
  </edge>
  <edge id=":1_1" function="internal">
    <lane id=":1_1_0" index="0" disallow="pedestrian tram rail_urban rail rail_electric rail_fast ship" speed="22.22" length="32.54" width="3.75" shape="424.61,655.08 399.58,675.85"/>
    <lane id=":1_1_1" index="1" disallow="pedestrian tram rail_urban rail rail_electric rail_fast ship" speed="22.22" length="32.54" width="3.75" shape="422.22,652.19 397.18,672.97"/>
    <lane id=":1_1_2" index="2" disallow="pedestrian tram rail_urban rail rail_electric rail_fast ship" speed="22.22" length="32.54" width="3.75" shape="419.83,649.30 394.78,670.09"/>
  </edge>
  <edge id=":10_0" function="internal">
    <lane id=":10_0_0" index="0" disallow="pedestrian tram rail_urban rail rail_electric rail_fast ship" speed="22.22" length="109.37" width="3.75" shape="831.59,337.94,0.00 928.35,286.94"/>
  </edge>
  <edge id=":10_1" function="internal">
    <lane id=":10_1_0" index="0" disallow="pedestrian tram rail_urban rail rail_electric rail_fast ship" speed="22.22" length="109.11" width="3.75" shape="833.76,341.43 928.35,286.94"/>
    <lane id=":10_1_1" index="1" disallow="pedestrian tram rail_urban rail rail_electric rail_fast ship" speed="22.22" length="109.11" width="3.75" shape="835.66,344.67 930.20,290.20"/>
    <lane id=":10_1_2" index="2" disallow="pedestrian tram rail_urban rail rail_electric rail_fast ship" speed="22.22" length="109.11" width="3.75" shape="837.55,347.90 932.05,293.46"/>
  </edge>
  <edge id=":11_0" function="internal">
    <lane id=":11_0_0" index="0" disallow="pedestrian tram rail_urban rail rail_electric rail_fast ship" speed="13.89" length="66.04" width="3.75" shape="419.16,905.44,5.64 354.73,890.92,5.60"/>
  </edge>
  <edge id=":11_1" function="internal">
    <lane id=":11_1_0" index="0" disallow="pedestrian tram rail_urban rail rail_electric rail_fast ship" speed="11.11" length="65.79" width="3.75" shape="419.66,901.51,5.70 354.73,890.92,5.60"/>
  </edge>
  <edge id=":12_0" function="internal">
    <lane id=":12_0_0" index="0" disallow="pedestrian tram rail_urban rail rail_electric rail_fast ship" speed="20.83" length="24.66" width="3.75" shape="959.95,262.19,0.02 964.24,261.93,0.01 969.60,261.12,0.01 976.02,259.24,0.01 983.48,255.73"/>
  </edge>
  <edge id=":12_1" function="internal">
    <lane id=":12_1_0" index="0" disallow="pedestrian tram rail_urban rail rail_electric rail_fast ship" speed="22.22" length="23.35" width="3.75" shape="963.14,267.21 983.48,255.73"/>
    <lane id=":12_1_1" index="1" disallow="pedestrian tram rail_urban rail rail_electric rail_fast ship" speed="22.22" length="23.35" width="3.75" shape="964.99,270.48 985.32,258.99"/>
    <lane id=":12_1_2" index="2" disallow="pedestrian tram rail_urban rail rail_electric rail_fast ship" speed="22.22" length="23.35" width="3.75" shape="966.84,273.74 987.17,262.26"/>
  </edge>
  <edge id=":13_0" function="internal">
    <lane id=":13_0_0" index="0" disallow="pedestrian tram rail_urban rail rail_electric rail_fast ship" speed="15.97" length="28.62" width="3.75" shape="499.98,735.21,20.00 499.36,730.65,20.00 497.45,724.64,20.00 493.96,717.45,20.00 488.64,709.33,20.00"/>
  </edge>
  <edge id=":13_1" function="internal">
    <lane id=":13_1_0" index="0" disallow="pedestrian tram rail_urban rail rail_electric rail_fast ship" speed="22.22" length="27.13" width="3.75" shape="504.95,731.04,20.00 488.64,709.33,20.00"/>
    <lane id=":13_1_1" index="1" disallow="pedestrian tram rail_urban rail rail_electric rail_fast ship" speed="22.22" length="27.13" width="3.75" shape="507.94,728.78,20.00 491.64,707.08,20.00"/>
    <lane id=":13_1_2" index="2" disallow="pedestrian tram rail_urban rail rail_electric rail_fast ship" speed="22.22" length="27.13" width="3.75" shape="510.93,726.52,20.00 494.65,704.84,20.00"/>
  </edge>
  <edge id=":13.12_0" function="internal">
    <lane id=":13.12_0_0" index="0" disallow="pedestrian tram rail_urban rail rail_electric rail_fast ship" speed="22.22" length="0.30" width="3.75" shape="565.49,771.93,20.00 565.67,772.16,20.00"/>
    <lane id=":13.12_0_1" index="1" disallow="pedestrian tram rail_urban rail rail_electric rail_fast ship" speed="22.22" length="0.30" width="3.75" shape="562.57,774.29,20.00 562.76,774.52,20.00"/>
    <lane id=":13.12_0_2" index="2" disallow="pedestrian tram rail_urban rail rail_electric rail_fast ship" speed="22.22" length="0.30" width="3.75" shape="559.65,776.64,20.00 559.84,776.88,20.00"/>
  </edge>
  <edge id=":18.17_0" function="internal">
    <lane id=":18.17_0_0" index="0" disallow="pedestrian tram rail_urban rail rail_electric rail_fast ship" speed="22.22" length="0.30" width="3.75" shape="547.98,786.46,20.00 547.79,786.22,20.00"/>
    <lane id=":18.17_0_1" index="1" disallow="pedestrian tram rail_urban rail rail_electric rail_fast ship" speed="22.22" length="0.30" width="3.75" shape="550.90,784.10,20.00 550.71,783.87,20.00"/>
    <lane id=":18.17_0_2" index="2" disallow="pedestrian tram rail_urban rail rail_electric rail_fast ship" speed="22.22" length="0.30" width="3.75" shape="553.81,781.74,20.00 553.63,781.51,20.00"/>
  </edge>
  <edge id=":2_0" function="internal">
    <lane id=":2_0_0" index="0" disallow="pedestrian tram rail_urban rail rail_electric rail_fast ship" speed="16.67" length="88.28" width="3.75" shape="94.35,906.51 108.66,893.38 129.34,873.80 148.51,855.37 158.34,845.69"/>
  </edge>
  <edge id=":2_1" function="internal">
    <lane id=":2_1_0" index="0" disallow="pedestrian tram rail_urban rail rail_electric rail_fast ship" speed="22.22" length="88.43" width="3.75" shape="94.35,906.51 161.27,848.69"/>
    <lane id=":2_1_1" index="1" disallow="pedestrian tram rail_urban rail rail_electric rail_fast ship" speed="22.22" length="88.43" width="3.75" shape="96.81,909.34 163.72,851.53"/>
    <lane id=":2_1_2" index="2" disallow="pedestrian tram rail_urban rail rail_electric rail_fast ship" speed="22.22" length="88.43" width="3.75" shape="99.26,912.18 166.17,854.37"/>
  </edge>
  <edge id=":2.1_0" function="internal">
    <lane id=":2.1_0_0" index="0" disallow="pedestrian tram rail_urban rail rail_electric rail_fast ship" speed="22.22" length="0.30" width="3.75" shape="595.09,520.28 594.85,520.45"/>
    <lane id=":2.1_0_1" index="1" disallow="pedestrian tram rail_urban rail rail_electric rail_fast ship" speed="22.22" length="0.30" width="3.75" shape="592.89,517.24 592.65,517.42"/>
    <lane id=":2.1_0_2" index="2" disallow="pedestrian tram rail_urban rail rail_electric rail_fast ship" speed="22.22" length="0.30" width="3.75" shape="590.68,514.21 590.44,514.39"/>
  </edge>
  <edge id=":22.21_0" function="internal">
    <lane id=":22.21_0_0" index="0" disallow="pedestrian tram rail_urban rail rail_electric rail_fast ship" speed="13.89" length="0.30" width="3.75" shape="744.09,667.50,9.34 744.06,667.79,9.35"/>
  </edge>
  <edge id=":24.23_0" function="internal">
    <lane id=":24.23_0_0" index="0" disallow="pedestrian tram rail_urban rail rail_electric rail_fast ship" speed="13.89" length="0.30" width="3.75" shape="455.58,916.40,7.89 455.30,916.30,7.88"/>
  </edge>
  <edge id=":27.26_0" function="internal">
    <lane id=":27.26_0_0" index="0" disallow="pedestrian tram rail_urban rail rail_electric rail_fast ship" speed="11.11" length="0.30" width="3.75" shape="242.49,541.63,9.87 242.49,541.33,9.88"/>
  </edge>
  <edge id=":29.28_0" function="internal">
    <lane id=":29.28_0_0" index="0" disallow="pedestrian tram rail_urban rail rail_electric rail_fast ship" speed="22.22" length="0.30" width="3.75" shape="580.46,378.99,7.85 580.75,379.05,7.84"/>
  </edge>
  <edge id=":3_0" function="internal">
    <lane id=":3_0_0" index="0" disallow="pedestrian tram rail_urban rail rail_electric rail_fast ship" speed="22.22" length="69.94" width="3.75" shape="93.46,112.96,20.00 103.38,126.21,20.00 117.09,143.63,20.00 129.83,159.43,20.00 136.81,167.83,20.00"/>
  </edge>
  <edge id=":3_1" function="internal">
    <lane id=":3_1_0" index="0" disallow="pedestrian tram rail_urban rail rail_electric rail_fast ship" speed="22.22" length="70.08" width="3.75" shape="93.46,112.96,20.00 133.50,170.47,20.00"/>
    <lane id=":3_1_1" index="1" disallow="pedestrian tram rail_urban rail rail_electric rail_fast ship" speed="22.22" length="70.08" width="3.75" shape="90.38,115.10,20.00 130.42,172.61,20.00"/>
    <lane id=":3_1_2" index="2" disallow="pedestrian tram rail_urban rail rail_electric rail_fast ship" speed="22.22" length="70.08" width="3.75" shape="87.31,117.24,20.00 127.34,174.76,20.00"/>
  </edge>
  <edge id=":31.30_0" function="internal">
    <lane id=":31.30_0_0" index="0" disallow="pedestrian tram rail_urban rail rail_electric rail_fast ship" speed="8.33" length="0.29" width="3.75" shape="982.21,565.06,12.22 982.31,565.33,12.22"/>
  </edge>
  <edge id=":33.32_0" function="internal">
    <lane id=":33.32_0_0" index="0" disallow="pedestrian tram rail_urban rail rail_electric rail_fast ship" speed="19.44" length="0.30" width="3.75" shape="404.31,421.76,9.81 404.42,421.48,9.80"/>
  </edge>
  <edge id=":35.34_0" function="internal">
    <lane id=":35.34_0_0" index="0" disallow="pedestrian tram rail_urban rail rail_electric rail_fast ship" speed="9.72" length="0.26" width="3.75" shape="433.74,757.61,10.32 433.96,757.75,10.36"/>
  </edge>
  <edge id=":4_0" function="internal">
    <lane id=":4_0_0" index="0" disallow="pedestrian tram rail_urban rail rail_electric rail_fast ship" speed="15.28" length="21.77" width="3.75" shape="79.84,93.38,20.00 84.37,98.97,20.00 88.65,102.84,20.00 92.57,105.55,20.00 96.01,107.67,20.00"/>
  </edge>
  <edge id=":4_1" function="internal">
    <lane id=":4_1_0" index="0" disallow="pedestrian tram rail_urban rail rail_electric rail_fast ship" speed="22.22" length="21.99" width="3.75" shape="79.84,93.38,20.00 92.40,111.43,20.00"/>
    <lane id=":4_1_1" index="1" disallow="pedestrian tram rail_urban rail rail_electric rail_fast ship" speed="22.22" length="21.99" width="3.75" shape="76.76,95.52,20.00 89.32,113.57,20.00"/>
    <lane id=":4_1_2" index="2" disallow="pedestrian tram rail_urban rail rail_electric rail_fast ship" speed="22.22" length="21.99" width="3.75" shape="73.68,97.66,20.00 86.24,115.71,20.00"/>
  </edge>
  <edge id=":5_0" function="internal">
    <lane id=":5_0_0" index="0" disallow="pedestrian tram rail_urban rail rail_electric rail_fast ship" speed="18.06" length="41.26" width="3.75" shape="901.27,1164.80,20.00 892.41,1156.63,19.96 882.89,1148.83,19.92 874.58,1142.50,19.89 869.35,1138.72,19.87"/>
  </edge>
  <edge id=":5_1" function="internal">
    <lane id=":5_1_0" index="0" disallow="pedestrian tram rail_urban rail rail_electric rail_fast ship" speed="22.22" length="41.39" width="3.75" shape="901.27,1164.80,20.00 872.21,1135.32,20.00"/>
    <lane id=":5_1_1" index="1" disallow="pedestrian tram rail_urban rail rail_electric rail_fast ship" speed="22.22" length="41.39" width="3.75" shape="903.94,1162.17,20.00 874.88,1132.69,20.00"/>
    <lane id=":5_1_2" index="2" disallow="pedestrian tram rail_urban rail rail_electric rail_fast ship" speed="22.22" length="41.39" width="3.75" shape="906.61,1159.54,20.00 877.56,1130.06,20.00"/>
  </edge>
  <edge id=":6_0" function="internal">
    <lane id=":6_0_0" index="0" disallow="pedestrian tram rail_urban rail rail_electric rail_fast ship" speed="20.83" length="42.97" width="3.75" shape="707.69,965.19,20.00 698.84,956.61,19.99 689.10,948.16,19.97 680.55,941.19,19.96 675.23,937.07,19.95"/>
  </edge>
  <edge id=":6_1" function="internal">
    <lane id=":6_1_0" index="0" disallow="pedestrian tram rail_urban rail rail_electric rail_fast ship" speed="22.22" length="43.14" width="3.75" shape="707.69,965.19,20.00 678.15,933.71,20.00"/>
    <lane id=":6_1_1" index="1" disallow="pedestrian tram rail_urban rail rail_electric rail_fast ship" speed="22.22" length="43.14" width="3.75" shape="710.41,962.61,20.00 680.89,931.15,20.00"/>
    <lane id=":6_1_2" index="2" disallow="pedestrian tram rail_urban rail rail_electric rail_fast ship" speed="22.22" length="43.14" width="3.75" shape="713.14,960.04,20.00 683.64,928.60,20.00"/>
  </edge>
  <edge id=":7_0" function="internal">
    <lane id=":7_0_0" index="0" disallow="pedestrian tram rail_urban rail rail_electric rail_fast ship" speed="18.06" length="59.60" width="3.75" shape="885.54,1110.22,19.83 891.33,1117.52,19.85 901.99,1130.43,19.90 914.07,1144.58,19.96 924.13,1155.61,20.00"/>
  </edge>
  <edge id=":7_1" function="internal">
    <lane id=":7_1_0" index="0" disallow="pedestrian tram rail_urban rail rail_electric rail_fast ship" speed="22.22" length="59.20" width="3.75" shape="882.58,1113.45,20.00 924.13,1155.61,20.00"/>
    <lane id=":7_1_1" index="1" disallow="pedestrian tram rail_urban rail rail_electric rail_fast ship" speed="22.22" length="59.20" width="3.75" shape="879.91,1116.08,20.00 921.47,1158.24,20.00"/>
    <lane id=":7_1_2" index="2" disallow="pedestrian tram rail_urban rail rail_electric rail_fast ship" speed="22.22" length="59.20" width="3.75" shape="877.23,1118.70,20.00 918.80,1160.88,20.00"/>
  </edge>
  <edge id=":7.6_0" function="internal">
    <lane id=":7.6_0_0" index="0" disallow="pedestrian tram rail_urban rail rail_electric rail_fast ship" speed="22.22" length="0.30" width="3.75" shape="581.47,502.06 581.72,501.88"/>
    <lane id=":7.6_0_1" index="1" disallow="pedestrian tram rail_urban rail rail_electric rail_fast ship" speed="22.22" length="0.30" width="3.75" shape="583.68,505.09 583.92,504.91"/>
    <lane id=":7.6_0_2" index="2" disallow="pedestrian tram rail_urban rail rail_electric rail_fast ship" speed="22.22" length="0.30" width="3.75" shape="585.88,508.12 586.12,507.95"/>
  </edge>
  <edge id=":8_0" function="internal">
    <lane id=":8_0_0" index="0" disallow="pedestrian tram rail_urban rail rail_electric rail_fast ship" speed="18.06" length="30.14" width="3.75" shape="157.48,889.14,0.14 153.06,890.86,0.12 147.05,893.70,0.09 139.80,898.05,0.05 131.64,904.32"/>
  </edge>
  <edge id=":8_1" function="internal">
    <lane id=":8_1_0" index="0" disallow="pedestrian tram rail_urban rail rail_electric rail_fast ship" speed="22.22" length="29.14" width="3.75" shape="153.68,885.27 131.64,904.32"/>
    <lane id=":8_1_1" index="1" disallow="pedestrian tram rail_urban rail rail_electric rail_fast ship" speed="22.22" length="29.14" width="3.75" shape="151.23,882.43 129.19,901.48"/>
    <lane id=":8_1_2" index="2" disallow="pedestrian tram rail_urban rail rail_electric rail_fast ship" speed="22.22" length="29.14" width="3.75" shape="148.78,879.59 126.73,898.65"/>
  </edge>
  <edge id=":9_0" function="internal">
    <lane id=":9_0_0" index="0" disallow="pedestrian tram rail_urban rail rail_electric rail_fast ship" speed="16.67" length="84.02" width="3.75" shape="135.66,220.64,20.00 128.88,209.40,20.00 115.69,188.00,20.00 101.35,165.11,20.00 91.12,149.40,20.00"/>
  </edge>
  <edge id=":9_1" function="internal">
    <lane id=":9_1_0" index="0" disallow="pedestrian tram rail_urban rail rail_electric rail_fast ship" speed="22.22" length="83.75" width="3.75" shape="138.99,218.13,20.00 91.12,149.40,20.00"/>
    <lane id=":9_1_1" index="1" disallow="pedestrian tram rail_urban rail rail_electric rail_fast ship" speed="22.22" length="83.75" width="3.75" shape="142.07,215.98,20.00 94.20,147.26,20.00"/>
    <lane id=":9_1_2" index="2" disallow="pedestrian tram rail_urban rail rail_electric rail_fast ship" speed="22.22" length="83.75" width="3.75" shape="145.14,213.84,20.00 97.28,145.12,20.00"/>
  </edge>
  <edge id="-0" from="0.begin" to="0" priority="1" type="driving" shape="1102.73,202.87 1101.62,203.55 1100.48,204.23 1099.33,204.92 1098.15,205.62 1096.96,206.33 1095.75,207.05 1094.51,207.78 1093.26,208.52 1091.99,209.27 1090.70,210.03 1089.40,210.80 1088.07,211.58 1086.72,212.36 1085.36,213.16 1083.98,213.96 1082.58,214.78 1081.16,215.60 1079.73,216.43 1078.28,217.27 1076.81,218.12 1075.32,218.98 1073.82,219.85 1072.30,220.72 1070.76,221.61 1069.20,222.50 1067.63,223.40 1066.04,224.31 1064.44,225.23 1062.82,226.16 1061.18,227.09 1059.53,228.04 1057.86,228.99 1056.18,229.95 1054.48,230.92 1052.76,231.89 1051.03,232.88 1049.29,233.87 1047.53,234.87 1045.75,235.88 1043.96,236.89 1042.16,237.91 1040.34,238.94 1038.50,239.98 1036.66,241.03 1034.79,242.08 1032.92,243.14 1031.03,244.21 1029.13,245.29 1027.21,246.37 1025.28,247.46 1023.34,248.56 1021.38,249.66 1019.41,250.78 1017.43,251.90 1015.44,253.02 1013.43,254.15 1011.41,255.29 1009.38,256.44 1007.33,257.59 1005.28,258.75 1003.21,259.92 1001.13,261.09 999.04,262.27 996.94,263.46 994.82,264.65 992.70,265.85 990.56,267.06 988.41,268.27 986.26,269.49 984.09,270.71 981.91,271.94 979.72,273.18 977.52,274.42">
    <lane id="-0_0" index="0" disallow="pedestrian tram rail_urban rail rail_electric rail_fast ship" speed="22.22" length="140.37" width="3.75" shape="1107.57,210.90 1106.45,211.58 1105.31,212.27 1104.14,212.97 1102.96,213.67 1101.75,214.39 1100.53,215.12 1099.29,215.85 1098.03,216.60 1096.75,217.35 1095.45,218.11 1094.14,218.89 1092.81,219.67 1091.45,220.46 1090.08,221.26 1088.70,222.06 1087.29,222.88 1085.87,223.71 1084.43,224.54 1082.97,225.39 1081.50,226.24 1080.01,227.10 1078.50,227.97 1076.97,228.85 1075.43,229.74 1073.87,230.63 1072.29,231.53 1070.70,232.45 1069.10,233.37 1067.47,234.30 1065.83,235.23 1064.18,236.18 1062.50,237.13 1060.82,238.09 1059.12,239.06 1057.40,240.04 1055.67,241.03 1053.92,242.02 1052.15,243.02 1050.38,244.03 1048.59,245.05 1046.78,246.07 1044.96,247.10 1043.12,248.14 1041.27,249.19 1039.41,250.24 1037.53,251.30 1035.64,252.37 1033.74,253.45 1031.82,254.53 1029.89,255.62 1027.95,256.72 1025.99,257.83 1024.02,258.94 1022.04,260.06 1020.04,261.19 1018.04,262.32 1016.02,263.46 1013.98,264.61 1011.94,265.76 1009.88,266.92 1007.82,268.09 1005.74,269.26 1003.65,270.44 1001.54,271.63 999.43,272.82 997.30,274.02 995.17,275.22 993.02,276.43 990.86,277.65 988.70,278.88 986.52,280.11 985.62,280.61" type="driving"/>
    <lane id="-0_1" index="1" disallow="pedestrian tram rail_urban rail rail_electric rail_fast ship" speed="22.22" length="140.37" width="3.75" shape="1105.64,207.69 1104.52,208.37 1103.38,209.05 1102.22,209.75 1101.04,210.45 1099.84,211.17 1098.62,211.89 1097.38,212.62 1096.12,213.37 1094.85,214.12 1093.55,214.88 1092.24,215.65 1090.91,216.43 1089.56,217.22 1088.20,218.02 1086.81,218.82 1085.41,219.64 1083.99,220.46 1082.55,221.30 1081.09,222.14 1079.62,222.99 1078.13,223.85 1076.63,224.72 1075.10,225.60 1073.56,226.48 1072.00,227.38 1070.43,228.28 1068.84,229.19 1067.23,230.11 1065.61,231.04 1063.97,231.98 1062.32,232.92 1060.65,233.87 1058.96,234.83 1057.26,235.80 1055.54,236.78 1053.81,237.77 1052.07,238.76 1050.30,239.76 1048.53,240.77 1046.74,241.78 1044.93,242.81 1043.11,243.84 1041.28,244.88 1039.43,245.92 1037.56,246.98 1035.69,248.04 1033.80,249.11 1031.89,250.19 1029.98,251.27 1028.05,252.36 1026.10,253.46 1024.15,254.56 1022.18,255.67 1020.20,256.79 1018.20,257.92 1016.19,259.05 1014.17,260.19 1012.14,261.34 1010.10,262.49 1008.04,263.65 1005.97,264.82 1003.89,265.99 1001.80,267.17 999.70,268.36 997.59,269.55 995.46,270.75 993.33,271.96 991.18,273.17 989.02,274.39 986.85,275.61 984.67,276.84 983.78,277.35" type="driving"/>
    <lane id="-0_2" index="2" disallow="pedestrian tram rail_urban rail rail_electric rail_fast ship" speed="22.22" length="140.37" width="3.75" shape="1103.70,204.48 1102.58,205.15 1101.45,205.84 1100.29,206.53 1099.11,207.23 1097.92,207.94 1096.70,208.67 1095.47,209.40 1094.22,210.14 1092.94,210.89 1091.65,211.65 1090.34,212.42 1089.02,213.19 1087.67,213.98 1086.31,214.78 1084.92,215.58 1083.52,216.40 1082.11,217.22 1080.67,218.05 1079.22,218.89 1077.75,219.74 1076.26,220.60 1074.75,221.47 1073.23,222.35 1071.69,223.23 1070.14,224.13 1068.56,225.03 1066.98,225.94 1065.37,226.86 1063.75,227.78 1062.11,228.72 1060.46,229.66 1058.79,230.62 1057.10,231.58 1055.40,232.54 1053.69,233.52 1051.96,234.51 1050.21,235.50 1048.45,236.50 1046.68,237.51 1044.89,238.52 1043.08,239.54 1041.26,240.58 1039.43,241.61 1037.58,242.66 1035.72,243.71 1033.84,244.78 1031.95,245.84 1030.05,246.92 1028.13,248.00 1026.20,249.09 1024.26,250.19 1022.30,251.30 1020.33,252.41 1018.35,253.53 1016.36,254.65 1014.35,255.79 1012.33,256.93 1010.30,258.07 1008.25,259.23 1006.20,260.39 1004.13,261.55 1002.05,262.73 999.96,263.91 997.86,265.09 995.74,266.29 993.62,267.49 991.48,268.69 989.33,269.90 987.18,271.12 985.01,272.35 982.83,273.58 981.93,274.08" type="driving"/>
  </edge>
  <edge id="-1" from="0" to="2.1" priority="1" type="driving" shape="977.52,274.42 975.97,275.29 974.43,276.17 972.87,277.05 971.31,277.93 969.75,278.81 968.18,279.70 966.61,280.59 965.03,281.48 963.45,282.38 961.86,283.27 960.27,284.18 958.68,285.08 957.08,285.98 955.47,286.89 953.87,287.80 952.25,288.72 950.64,289.63 949.01,290.55 947.39,291.48 945.76,292.40 944.13,293.33 942.49,294.26 940.85,295.19 939.20,296.12 937.56,297.06 935.90,298.00 934.25,298.94 932.59,299.89 930.92,300.83 929.26,301.78 927.59,302.73 925.91,303.69 924.23,304.64 922.55,305.60 920.87,306.56 919.18,307.53 917.49,308.49 915.80,309.46 914.10,310.43 912.40,311.40 910.70,312.37 908.99,313.35 907.28,314.33 905.57,315.31 903.85,316.29 902.13,317.28 900.41,318.26 898.69,319.25 896.96,320.24 895.23,321.24 893.50,322.23 891.77,323.23 890.03,324.23 888.29,325.23 886.55,326.23 884.81,327.24 883.06,328.24 881.31,329.25 879.56,330.26 877.81,331.27 876.05,332.29 874.29,333.30 872.53,334.32 870.77,335.34 869.01,336.36 867.24,337.39 865.48,338.41 863.71,339.44 861.94,340.47 860.16,341.49 858.39,342.53 856.61,343.56 854.84,344.59 853.06,345.63 851.28,346.67 849.49,347.71 847.71,348.75 845.93,349.79 844.14,350.83 842.35,351.88 840.56,352.93 838.77,353.97 836.98,355.02 835.19,356.07 833.40,357.13 831.60,358.18 829.81,359.24 828.01,360.29 826.22,361.35 824.42,362.41 822.62,363.47 820.82,364.53 819.02,365.59 817.22,366.66 815.42,367.72 813.62,368.79 811.82,369.86 810.01,370.93 808.21,372.00 806.41,373.07 804.61,374.14 802.80,375.21 801.00,376.29 799.19,377.36 797.39,378.44 795.59,379.51 793.78,380.59 791.98,381.67 790.17,382.75 788.37,383.83 786.57,384.92 784.76,386.00 782.96,387.08 781.16,388.17 779.35,389.25 777.55,390.34 775.75,391.43 773.95,392.51 772.15,393.60 770.35,394.69 768.55,395.78 766.75,396.87 764.95,397.96 763.16,399.06 761.36,400.15 759.56,401.24 757.77,402.34 755.98,403.43 754.18,404.53 752.39,405.62 750.60,406.72 748.81,407.81 747.02,408.91 745.24,410.01 743.45,411.11 741.67,412.21 739.89,413.31 738.10,414.41 736.32,415.51 734.55,416.61 732.77,417.71 730.99,418.81 729.22,419.91 727.45,421.01 725.68,422.11 723.91,423.22 722.14,424.32 720.38,425.42 718.62,426.52 716.85,427.63 715.10,428.73 713.34,429.83 711.59,430.94 709.83,432.04 708.08,433.15 706.34,434.25 704.59,435.35 702.85,436.46 701.11,437.56 699.37,438.67 697.63,439.77 695.90,440.87 694.17,441.98 692.44,443.08 690.71,444.19 688.99,445.29 687.27,446.39 685.56,447.50 683.84,448.60 682.13,449.70 680.42,450.81 678.72,451.91 677.01,453.01 675.32,454.12 673.62,455.22 671.93,456.32 670.24,457.42 668.55,458.52 666.87,459.62 665.19,460.72 663.51,461.83 661.84,462.92 660.17,464.02 658.51,465.12 656.84,466.22 655.19,467.32 653.53,468.42 651.88,469.51 650.23,470.61 648.59,471.71 646.95,472.80 645.32,473.90 643.68,474.99 642.06,476.09 640.43,477.18 638.81,478.27 637.20,479.36 635.59,480.46 633.98,481.55 632.38,482.64 630.78,483.72 629.19,484.81 627.60,485.90 626.02,486.99 624.44,488.07 622.86,489.16 621.29,490.24 619.72,491.33 618.16,492.41 616.61,493.49 615.05,494.57 613.51,495.65 611.97,496.73 610.43,497.81 608.90,498.88 607.37,499.96 605.85,501.03 604.33,502.11 602.82,503.18 601.31,504.25 599.81,505.32 598.32,506.39 596.83,507.46 595.34,508.53 593.86,509.59 592.39,510.66 590.92,511.72 589.46,512.78">