<?xml version='1.0' encoding='UTF-8'?>
<!-- generated on 2022-09-06 05:40:15 by Eclipse SUMO netconvert Version 1.13.0
<configuration xmlns:xsi="http://www.w3.org/2001/XMLSchema-instance" xsi:noNamespaceSchemaLocation="http://sumo.dlr.de/xsd/netconvertConfiguration.xsd">

    <input>
        <opendrive-files value="map\15\42113737\42113737.xodr"/>
    </input>

    <output>
        <output-file value="C:\Users\LinGe\AppData\Local\Temp\tmpu_c3n0z9\42113737.net.xml"/>
    </output>

    <processing>
        <geometry.max-grade.fix value="false"/>
    </processing>

    <tls_building>
        <tls.left-green.time value="0"/>
    </tls_building>

    <junctions>
        <rectangular-lane-cut value="true"/>
    </junctions>

    <report>
        <aggregate-warnings value="5"/>
    </report>

</configuration>
-->
<net xmlns:xsi="http://www.w3.org/2001/XMLSchema-instance" version="1.9" junctionCornerDetail="5" rectangularLaneCut="true" limitTurnSpeed="5.50" xsi:noNamespaceSchemaLocation="http://sumo.dlr.de/xsd/net_file.xsd">
  <location netOffset="201.55,201.27" convBoundary="0.00,0.00,1114.90,1052.95" origBoundary="-201.55,-201.27,913.35,851.68" projParameter="!"/>
  <type id="bidirectional" priority="1" speed="1.39" disallow="pedestrian tram rail_urban rail rail_electric rail_fast ship" width="3.65"/>
  <type id="border" priority="0" speed="1.39" disallow="all" discard="1" width="0.10"/>
  <type id="driving" priority="1" speed="13.89" disallow="pedestrian tram rail_urban rail rail_electric rail_fast ship" width="3.65"/>
  <type id="entry" priority="1" speed="22.22" disallow="pedestrian tram rail_urban rail rail_electric rail_fast ship" width="3.65"/>
  <type id="exit" priority="1" speed="22.22" disallow="pedestrian tram rail_urban rail rail_electric rail_fast ship" width="3.65"/>
  <type id="median" priority="0" speed="1.39" disallow="all" discard="1" width="0.10"/>
  <type id="mwyEntry" priority="1" speed="22.22" allow="private emergency authority army vip passenger hov taxi bus coach delivery truck trailer motorcycle evehicle custom1 custom2" width="3.65"/>
  <type id="mwyExit" priority="1" speed="22.22" allow="private emergency authority army vip passenger hov taxi bus coach delivery truck trailer motorcycle evehicle custom1 custom2" width="3.65"/>
  <type id="none" priority="0" speed="1.39" disallow="all" discard="1" width="1.00"/>
  <type id="offRamp" priority="1" speed="22.22" allow="private emergency authority army vip passenger hov taxi bus coach delivery truck trailer motorcycle evehicle custom1 custom2" width="3.65"/>
  <type id="onRamp" priority="1" speed="22.22" allow="private emergency authority army vip passenger hov taxi bus coach delivery truck trailer motorcycle evehicle custom1 custom2" width="3.65"/>
  <type id="parking" priority="1" speed="1.39" disallow="pedestrian tram rail_urban rail rail_electric rail_fast ship" width="2.50"/>
  <type id="rail" priority="3" speed="33.33" allow="rail_urban rail rail_electric rail_fast" width="3.65"/>
  <type id="restricted" priority="0" speed="13.89" disallow="all" width="3.65"/>
  <type id="roadWorks" priority="0" speed="1.39" allow="authority" width="3.65"/>
  <type id="shoulder" priority="0" speed="1.39" disallow="all" discard="1" width="1.00"/>
  <type id="special1" priority="1" speed="22.22" allow="custom1" discard="1" width="3.65"/>
  <type id="special2" priority="1" speed="22.22" allow="custom2" discard="1" width="3.65"/>
  <type id="special3" priority="1" speed="22.22" allow="custom1 custom2" discard="1" width="3.65"/>
  <type id="stop" priority="1" speed="13.89" disallow="pedestrian tram rail_urban rail rail_electric rail_fast ship" width="3.65"/>
  <type id="tram" priority="2" speed="13.89" allow="tram" width="3.65"/>
  <edge id=":0_0" function="internal">
    <lane id=":0_0_0" index="0" disallow="pedestrian tram rail_urban rail rail_electric rail_fast ship" speed="15.28" length="21.85" width="3.75" shape="941.65,591.96 935.39,595.57,0.00 930.88,599.20,0.01 927.60,602.68,0.01 925.06,605.84,0.01"/>
  </edge>
  <edge id=":0_1" function="internal">
    <lane id=":0_1_0" index="0" disallow="pedestrian tram rail_urban rail rail_electric rail_fast ship" speed="22.22" length="22.15" width="3.75" shape="941.65,591.96 921.74,601.65"/>
    <lane id=":0_1_1" index="1" disallow="pedestrian tram rail_urban rail rail_electric rail_fast ship" speed="22.22" length="22.15" width="3.75" shape="940.01,588.58 920.10,598.28"/>
    <lane id=":0_1_2" index="2" disallow="pedestrian tram rail_urban rail rail_electric rail_fast ship" speed="22.22" length="22.15" width="3.75" shape="938.37,585.21 918.45,594.91"/>
  </edge>
  <edge id=":1_0" function="internal">
    <lane id=":1_0_0" index="0" disallow="pedestrian tram rail_urban rail rail_electric rail_fast ship" speed="18.06" length="83.95" width="3.75" shape="310.03,980.86 323.04,967.38 341.49,947.69 358.55,929.26 367.36,919.55"/>
  </edge>
  <edge id=":1_1" function="internal">
    <lane id=":1_1_0" index="0" disallow="pedestrian tram rail_urban rail rail_electric rail_fast ship" speed="22.22" length="84.20" width="3.75" shape="310.03,980.86 370.60,922.25"/>
    <lane id=":1_1_1" index="1" disallow="pedestrian tram rail_urban rail rail_electric rail_fast ship" speed="22.22" length="84.20" width="3.75" shape="312.66,983.54 373.16,924.99"/>
    <lane id=":1_1_2" index="2" disallow="pedestrian tram rail_urban rail rail_electric rail_fast ship" speed="22.22" length="84.20" width="3.75" shape="315.28,986.21 375.72,927.73"/>
  </edge>
  <edge id=":11.10_0" function="internal">
    <lane id=":11.10_0_0" index="0" disallow="pedestrian tram rail_urban rail rail_electric rail_fast ship" speed="22.22" length="0.30" width="3.75" shape="294.14,287.85,20.00 293.95,287.63,20.00"/>
    <lane id=":11.10_0_1" index="1" disallow="pedestrian tram rail_urban rail rail_electric rail_fast ship" speed="22.22" length="0.30" width="3.75" shape="297.04,285.48,20.00 296.85,285.25,20.00"/>
    <lane id=":11.10_0_2" index="2" disallow="pedestrian tram rail_urban rail rail_electric rail_fast ship" speed="22.22" length="0.30" width="3.75" shape="299.95,283.11,20.00 299.75,282.87,20.00"/>
  </edge>
  <edge id=":13.12_0" function="internal">
    <lane id=":13.12_0_0" index="0" disallow="pedestrian tram rail_urban rail rail_electric rail_fast ship" speed="13.89" length="0.30" width="3.75" shape="486.22,714.67,13.04 486.30,714.38,13.06"/>
  </edge>
  <edge id=":16.15_0" function="internal">
    <lane id=":16.15_0_0" index="0" disallow="pedestrian tram rail_urban rail rail_electric rail_fast ship" speed="9.72" length="0.29" width="3.75" shape="613.01,617.26,14.13 613.31,617.25,14.10"/>
  </edge>
  <edge id=":19.18_0" function="internal">
    <lane id=":19.18_0_0" index="0" disallow="pedestrian tram rail_urban rail rail_electric rail_fast ship" speed="8.33" length="0.28" width="3.75" shape="680.36,1006.22,6.93 680.09,1006.30,6.93"/>
  </edge>
  <edge id=":2_0" function="internal">
    <lane id=":2_0_0" index="0" disallow="pedestrian tram rail_urban rail rail_electric rail_fast ship" speed="15.97" length="7.97" width="3.75" shape="459.40,541.96,20.00 463.26,548.94,20.00"/>
  </edge>
  <edge id=":2.1_0" function="internal">
    <lane id=":2.1_0_0" index="0" disallow="pedestrian tram rail_urban rail rail_electric rail_fast ship" speed="22.22" length="0.30" width="3.75" shape="580.43,786.24 580.18,786.40"/>
    <lane id=":2.1_0_1" index="1" disallow="pedestrian tram rail_urban rail rail_electric rail_fast ship" speed="22.22" length="0.30" width="3.75" shape="578.40,783.09 578.14,783.25"/>
    <lane id=":2.1_0_2" index="2" disallow="pedestrian tram rail_urban rail rail_electric rail_fast ship" speed="22.22" length="0.30" width="3.75" shape="576.36,779.94 576.10,780.10"/>
  </edge>
  <edge id=":21.20_0" function="internal">
    <lane id=":21.20_0_0" index="0" disallow="pedestrian tram rail_urban rail rail_electric rail_fast ship" speed="8.33" length="0.28" width="3.75" shape="1083.80,988.14,6.84 1083.63,988.37,6.84"/>
  </edge>
  <edge id=":3_0" function="internal">
    <lane id=":3_0_0" index="0" disallow="pedestrian tram rail_urban rail rail_electric rail_fast ship" speed="18.06" length="8.09" width="3.75" shape="443.71,560.54,19.99 439.83,553.44,20.00"/>
  </edge>
  <edge id=":4_0" function="internal">
    <lane id=":4_0_0" index="0" disallow="pedestrian tram rail_urban rail rail_electric rail_fast ship" speed="15.97" length="134.48" width="3.75" shape="906.19,579.45,0.00 1028.96,524.56"/>
  </edge>
  <edge id=":4_1" function="internal">
    <lane id=":4_1_0" index="0" disallow="pedestrian tram rail_urban rail rail_electric rail_fast ship" speed="22.22" length="134.28" width="3.75" shape="908.06,583.04 1028.96,524.56"/>
    <lane id=":4_1_1" index="1" disallow="pedestrian tram rail_urban rail rail_electric rail_fast ship" speed="22.22" length="134.28" width="3.75" shape="909.71,586.41 1030.59,527.94"/>
    <lane id=":4_1_2" index="2" disallow="pedestrian tram rail_urban rail rail_electric rail_fast ship" speed="22.22" length="134.28" width="3.75" shape="911.36,589.78 1032.22,531.31"/>
  </edge>
  <edge id=":5_0" function="internal">
    <lane id=":5_0_0" index="0" disallow="pedestrian tram rail_urban rail rail_electric rail_fast ship" speed="9.03" length="30.07" width="3.75" shape="615.25,617.24,13.92 645.29,618.60,13.77"/>
  </edge>
  <edge id=":5_1" function="internal">
    <lane id=":5_1_0" index="0" disallow="pedestrian tram rail_urban rail rail_electric rail_fast ship" speed="9.72" length="30.71" width="3.75" shape="615.25,617.24,13.92 621.39,617.97,13.89 630.40,619.58,13.85 639.38,621.40,13.81 645.43,622.78,13.78"/>
  </edge>
  <edge id=":6_0" function="internal">
    <lane id=":6_0_0" index="0" disallow="pedestrian tram rail_urban rail rail_electric rail_fast ship" speed="13.89" length="3.06" width="3.75" shape="487.07,711.71,13.17 487.83,708.75,13.29"/>
  </edge>
  <edge id=":6_1" function="internal">
    <lane id=":6_1_0" index="0" disallow="pedestrian tram rail_urban rail rail_electric rail_fast ship" speed="11.11" length="3.02" width="3.75" shape="487.09,711.68,13.23 487.83,708.75,13.29"/>
  </edge>
  <edge id=":6.5_0" function="internal">
    <lane id=":6.5_0_0" index="0" disallow="pedestrian tram rail_urban rail rail_electric rail_fast ship" speed="22.22" length="0.30" width="3.75" shape="567.82,767.30 568.08,767.13"/>
    <lane id=":6.5_0_1" index="1" disallow="pedestrian tram rail_urban rail rail_electric rail_fast ship" speed="22.22" length="0.30" width="3.75" shape="569.86,770.45 570.11,770.28"/>
    <lane id=":6.5_0_2" index="2" disallow="pedestrian tram rail_urban rail rail_electric rail_fast ship" speed="22.22" length="0.30" width="3.75" shape="571.90,773.59 572.15,773.43"/>
  </edge>
  <edge id=":7_0" function="internal">
    <lane id=":7_0_0" index="0" disallow="pedestrian tram rail_urban rail rail_electric rail_fast ship" speed="15.28" length="20.33" width="3.75" shape="401.60,933.88,0.01 397.65,934.34,0.01 393.27,935.34,0.00 388.46,937.52,0.00 383.23,941.51"/>
  </edge>
  <edge id=":7_1" function="internal">
    <lane id=":7_1_0" index="0" disallow="pedestrian tram rail_urban rail rail_electric rail_fast ship" speed="22.22" length="18.59" width="3.75" shape="396.81,928.87 383.23,941.51"/>
    <lane id=":7_1_1" index="1" disallow="pedestrian tram rail_urban rail rail_electric rail_fast ship" speed="22.22" length="18.59" width="3.75" shape="394.27,926.11 380.66,938.77"/>
    <lane id=":7_1_2" index="2" disallow="pedestrian tram rail_urban rail rail_electric rail_fast ship" speed="22.22" length="18.59" width="3.75" shape="391.73,923.35 378.09,936.04"/>
  </edge>
  <edge id=":9.8_0" function="internal">
    <lane id=":9.8_0_0" index="0" disallow="pedestrian tram rail_urban rail rail_electric rail_fast ship" speed="22.22" length="0.30" width="3.75" shape="311.55,273.22,20.00 311.75,273.46,20.00"/>
    <lane id=":9.8_0_1" index="1" disallow="pedestrian tram rail_urban rail rail_electric rail_fast ship" speed="22.22" length="0.30" width="3.75" shape="308.65,275.60,20.00 308.84,275.83,20.00"/>
    <lane id=":9.8_0_2" index="2" disallow="pedestrian tram rail_urban rail rail_electric rail_fast ship" speed="22.22" length="0.30" width="3.75" shape="305.75,277.97,20.00 305.94,278.20,20.00"/>
  </edge>
  <edge id="-0" from="0.begin" to="0" priority="1" type="driving" shape="1102.63,502.95 1101.53,503.52 1100.40,504.11 1099.26,504.70 1098.10,505.30 1096.92,505.90 1095.72,506.52 1094.51,507.14 1093.27,507.77 1092.02,508.41 1090.75,509.05 1089.47,509.70 1088.16,510.36 1086.84,511.02 1085.51,511.69 1084.15,512.37 1082.78,513.06 1081.39,513.75 1079.99,514.45 1078.57,515.16 1077.13,515.87 1075.68,516.60 1074.21,517.32 1072.72,518.06 1071.22,518.80 1069.70,519.55 1068.17,520.30 1066.62,521.06 1065.06,521.83 1063.48,522.61 1061.89,523.39 1060.28,524.17 1058.66,524.97 1057.02,525.77 1055.36,526.57 1053.70,527.39 1052.01,528.21 1050.32,529.03 1048.61,529.86 1046.88,530.70 1045.14,531.55 1043.39,532.40 1041.63,533.25 1039.85,534.12 1038.05,534.98 1036.25,535.86 1034.43,536.74 1032.60,537.63 1030.75,538.52 1028.89,539.42 1027.02,540.32 1025.14,541.23 1023.24,542.15 1021.33,543.07 1019.41,543.99 1017.48,544.93 1015.53,545.86 1013.58,546.81 1011.61,547.76 1009.63,548.71 1007.64,549.67 1005.63,550.64 1003.62,551.61 1001.59,552.58 999.56,553.57 997.51,554.55 995.45,555.54 993.38,556.54 991.30,557.54 989.21,558.55 987.11,559.56 985.00,560.58 982.88,561.60 980.75,562.63 978.61,563.66 976.46,564.70 974.30,565.74 972.13,566.79 969.95,567.84 967.76,568.90 965.57,569.96 963.36,571.02 961.15,572.09 958.92,573.17 956.69,574.25 954.45,575.33 952.20,576.42 949.94,577.52 947.68,578.61 945.40,579.72 943.12,580.82 940.83,581.93 938.54,583.05 936.23,584.17 933.92,585.29">
    <lane id="-0_0" index="0" disallow="pedestrian tram rail_urban rail rail_electric rail_fast ship" speed="22.22" length="183.86" width="3.75" shape="1106.97,511.26 1105.86,511.84 1104.72,512.43 1103.56,513.03 1102.39,513.63 1101.20,514.24 1099.99,514.86 1098.77,515.49 1097.53,516.12 1096.27,516.76 1094.99,517.41 1093.70,518.07 1092.39,518.73 1091.06,519.40 1089.71,520.07 1088.35,520.76 1086.97,521.45 1085.58,522.14 1084.17,522.85 1082.74,523.56 1081.30,524.27 1079.84,525.00 1078.37,525.73 1076.88,526.46 1075.37,527.21 1073.85,527.96 1072.31,528.71 1070.76,529.48 1069.19,530.25 1067.61,531.02 1066.01,531.81 1064.40,532.59 1062.77,533.39 1061.13,534.19 1059.47,535.00 1057.80,535.82 1056.12,536.64 1054.42,537.46 1052.71,538.30 1050.98,539.14 1049.24,539.98 1047.48,540.83 1045.72,541.69 1043.94,542.55 1042.14,543.42 1040.33,544.30 1038.51,545.18 1036.68,546.07 1034.83,546.96 1032.97,547.86 1031.10,548.76 1029.21,549.67 1027.32,550.59 1025.41,551.51 1023.48,552.44 1021.55,553.37 1019.61,554.31 1017.65,555.25 1015.68,556.20 1013.70,557.16 1011.71,558.12 1009.70,559.08 1007.69,560.05 1005.66,561.03 1003.63,562.01 1001.58,563.00 999.52,563.99 997.45,564.99 995.37,565.99 993.28,567.00 991.18,568.01 989.07,569.02 986.95,570.05 984.82,571.07 982.68,572.11 980.53,573.14 978.37,574.18 976.21,575.23 974.03,576.28 971.84,577.34 969.65,578.40 967.44,579.46 965.23,580.53 963.00,581.61 960.77,582.69 958.53,583.77 956.29,584.86 954.03,585.95 951.77,587.05 949.49,588.15 947.21,589.26 944.93,590.37 942.63,591.48 941.65,591.96" type="driving"/>
    <lane id="-0_1" index="1" disallow="pedestrian tram rail_urban rail rail_electric rail_fast ship" speed="22.22" length="183.86" width="3.75" shape="1105.23,507.93 1104.12,508.51 1102.99,509.10 1101.84,509.70 1100.67,510.30 1099.49,510.91 1098.29,511.53 1097.06,512.15 1095.83,512.78 1094.57,513.42 1093.30,514.07 1092.00,514.72 1090.70,515.38 1089.37,516.05 1088.03,516.72 1086.67,517.40 1085.30,518.09 1083.91,518.79 1082.50,519.49 1081.07,520.20 1079.63,520.91 1078.18,521.64 1076.70,522.36 1075.21,523.10 1073.71,523.84 1072.19,524.59 1070.66,525.35 1069.11,526.11 1067.54,526.88 1065.96,527.66 1064.36,528.44 1062.75,529.23 1061.13,530.02 1059.49,530.82 1057.83,531.63 1056.16,532.44 1054.48,533.26 1052.78,534.09 1051.07,534.92 1049.34,535.76 1047.60,536.61 1045.85,537.46 1044.08,538.32 1042.30,539.18 1040.51,540.05 1038.70,540.92 1036.88,541.80 1035.04,542.69 1033.20,543.58 1031.34,544.48 1029.47,545.39 1027.58,546.30 1025.69,547.21 1023.78,548.13 1021.86,549.06 1019.92,549.99 1017.98,550.93 1016.02,551.87 1014.05,552.82 1012.07,553.78 1010.08,554.74 1008.08,555.70 1006.06,556.67 1004.03,557.65 1002.00,558.63 999.95,559.62 997.89,560.61 995.82,561.61 993.74,562.61 991.65,563.62 989.55,564.63 987.44,565.65 985.32,566.67 983.19,567.70 981.05,568.73 978.90,569.77 976.74,570.81 974.58,571.85 972.40,572.91 970.21,573.96 968.01,575.02 965.81,576.09 963.59,577.16 961.37,578.23 959.14,579.31 956.90,580.40 954.65,581.49 952.40,582.58 950.13,583.67 947.86,584.78 945.58,585.88 943.29,586.99 940.99,588.11 940.01,588.58" type="driving"/>
    <lane id="-0_2" index="2" disallow="pedestrian tram rail_urban rail rail_electric rail_fast ship" speed="22.22" length="183.86" width="3.75" shape="1103.50,504.61 1102.39,505.19 1101.27,505.77 1100.12,506.36 1098.96,506.96 1097.78,507.57 1096.58,508.19 1095.36,508.81 1094.12,509.44 1092.87,510.08 1091.60,510.72 1090.31,511.37 1089.01,512.03 1087.69,512.70 1086.35,513.37 1084.99,514.05 1083.62,514.74 1082.23,515.43 1080.83,516.13 1079.40,516.84 1077.96,517.55 1076.51,518.28 1075.04,519.00 1073.55,519.74 1072.05,520.48 1070.53,521.23 1069.00,521.98 1067.45,522.75 1065.89,523.51 1064.31,524.29 1062.71,525.07 1061.10,525.86 1059.48,526.65 1057.84,527.45 1056.19,528.26 1054.52,529.07 1052.84,529.89 1051.14,530.72 1049.43,531.55 1047.70,532.39 1045.96,533.23 1044.21,534.08 1042.44,534.94 1040.66,535.80 1038.87,536.67 1037.06,537.55 1035.24,538.43 1033.41,539.31 1031.57,540.21 1029.71,541.11 1027.84,542.01 1025.95,542.92 1024.06,543.83 1022.15,544.76 1020.23,545.68 1018.29,546.62 1016.35,547.55 1014.39,548.50 1012.42,549.45 1010.44,550.40 1008.45,551.36 1006.45,552.33 1004.43,553.30 1002.41,554.27 1000.37,555.25 998.32,556.24 996.26,557.23 994.20,558.23 992.12,559.23 990.03,560.24 987.93,561.25 985.82,562.27 983.69,563.29 981.56,564.32 979.42,565.35 977.27,566.39 975.11,567.43 972.95,568.48 970.77,569.53 968.58,570.59 966.38,571.65 964.18,572.71 961.96,573.78 959.74,574.86 957.51,575.94 955.27,577.02 953.02,578.11 950.76,579.20 948.50,580.30 946.22,581.40 943.94,582.51 941.65,583.62 939.36,584.73 938.37,585.21" type="driving"/>
  </edge>
  <edge id="-1" from="0" to="2.1" priority="1" type="driving" shape="933.92,585.29 932.23,586.11 930.54,586.93 928.85,587.76 927.15,588.58 925.45,589.41 923.75,590.24 922.04,591.07 920.33,591.91 918.61,592.75 916.89,593.58 915.17,594.43 913.44,595.27 911.71,596.11 909.98,596.96 908.25,597.81 906.51,598.66 904.77,599.51 903.02,600.37 901.27,601.23 899.52,602.09 897.77,602.95 896.01,603.81 894.25,604.67 892.49,605.54 890.72,606.41 888.96,607.28 887.18,608.15 885.41,609.03 883.64,609.90 881.86,610.78 880.08,611.66 878.29,612.54 876.51,613.42 874.72,614.31 872.93,615.19 871.14,616.08 869.34,616.97 867.54,617.86 865.75,618.76 863.94,619.65 862.14,620.55 860.34,621.45 858.53,622.35 856.72,623.25 854.91,624.15 853.10,625.06 851.28,625.96 849.47,626.87 847.65,627.78 845.83,628.69 844.01,629.60 842.19,630.52 840.36,631.43 838.54,632.35 836.71,633.27 834.88,634.18 833.05,635.11 831.22,636.03 829.39,636.95 827.56,637.88 825.73,638.80 823.89,639.73 822.05,640.66 820.22,641.59 818.38,642.52 816.54,643.46 814.70,644.39 812.86,645.33 811.02,646.26 809.18,647.20 807.34,648.14 805.49,649.08 803.65,650.02 801.81,650.97 799.96,651.91 798.12,652.86 796.27,653.80 794.43,654.75 792.58,655.70 790.74,656.65 788.89,657.60 787.04,658.55 785.20,659.51 783.35,660.46 781.50,661.42 779.66,662.37 777.81,663.33 775.97,664.29 774.12,665.25 772.27,666.21 770.43,667.17 768.58,668.13 766.74,669.09 764.90,670.06 763.05,671.02 761.21,671.99 759.37,672.95 757.53,673.92 755.68,674.89 753.84,675.86 752.00,676.83 750.16,677.80 748.33,678.77 746.49,679.74 744.65,680.72 742.82,681.69 740.98,682.66 739.15,683.64 737.32,684.62 735.49,685.59 733.66,686.57 731.83,687.55 730.00,688.53 728.18,689.50 726.35,690.48 724.53,691.46 722.71,692.45 720.89,693.43 719.07,694.41 717.25,695.39 715.44,696.38 713.62,697.36 711.81,698.34 710.00,699.33 708.20,700.31 706.39,701.30 704.59,702.28 702.78,703.27 700.98,704.26 699.19,705.24 697.39,706.23 695.60,707.22 693.81,708.21 692.02,709.20 690.23,710.19 688.45,711.18 686.66,712.17 684.88,713.16 683.11,714.15 681.33,715.14 679.56,716.13 677.79,717.12 676.03,718.11 674.26,719.10 672.50,720.09 670.74,721.08 668.99,722.08 667.24,723.07 665.49,724.06 663.74,725.05 662.00,726.05 660.26,727.04 658.52,728.03 656.79,729.02 655.06,730.02 653.33,731.01 651.61,732.00 649.89,733.00 648.17,733.99 646.46,734.98 644.75,735.98 643.04,736.97 641.34,737.96 639.64,738.95 637.94,739.95 636.25,740.94 634.56,741.93 632.88,742.92 631.20,743.92 629.52,744.91 627.85,745.90 626.18,746.89 624.52,747.88 622.86,748.87 621.20,749.86 619.55,750.86 617.90,751.85 616.26,752.84 614.62,753.83 612.99,754.82 611.36,755.81 609.73,756.79 608.11,757.78 606.50,758.77 604.89,759.76 603.28,760.75 601.68,761.73 600.08,762.72 598.49,763.71 596.90,764.69 595.32,765.68 593.74,766.66 592.17,767.65 590.60,768.63 589.04,769.62 587.48,770.60 585.93,771.58 584.38,772.56 582.84,773.55 581.30,774.53 579.77,775.51 578.25,776.49 576.73,777.47 575.21,778.44">
    <lane id="-1_0" index="0" disallow="pedestrian tram rail_urban rail rail_electric rail_fast ship" speed="22.22" length="388.69" width="3.75" shape="921.74,601.65 921.00,602.01 919.28,602.85 917.56,603.69 915.83,604.54 914.10,605.38 912.37,606.23 910.63,607.08 908.89,607.93 907.15,608.79 905.40,609.64 903.65,610.50 901.90,611.36 900.14,612.22 898.39,613.09 896.63,613.95 894.86,614.82 893.10,615.69 891.33,616.56 889.56,617.43 887.78,618.31 886.01,619.19 884.23,620.06 882.45,620.94 880.66,621.83 878.88,622.71 877.09,623.59 875.30,624.48 873.51,625.37 871.71,626.26 869.92,627.15 868.12,628.05 866.32,628.94 864.51,629.84 862.71,630.74 860.90,631.64 859.09,632.54 857.28,633.44 855.47,634.35 853.66,635.25 851.84,636.16 850.03,637.07 848.21,637.98 846.39,638.89 844.57,639.81 842.75,640.72 840.92,641.64 839.10,642.56 837.27,643.48 835.44,644.40 833.62,645.32 831.79,646.25 829.95,647.17 828.12,648.10 826.29,649.02 824.46,649.95 822.62,650.88 820.79,651.82 818.95,652.75 817.11,653.68 815.27,654.62 813.44,655.55 811.60,656.49 809.76,657.43 807.92,658.37 806.08,659.31 804.24,660.26 802.40,661.20 800.55,662.14 798.71,663.09 796.87,664.04 795.03,664.99 793.18,665.93 791.34,666.88 789.50,667.84 787.66,668.79 785.81,669.74 783.97,670.70 782.13,671.65 780.29,672.61 778.45,673.56 776.60,674.52 774.76,675.48 772.92,676.44 771.08,677.40 769.24,678.36 767.40,679.33 765.56,680.29 763.72,681.26 761.89,682.22 760.05,683.19 758.21,684.15 756.38,685.12 754.54,686.09 752.71,687.06 750.88,688.03 749.04,689.00 747.21,689.97 745.38,690.94 743.56,691.92 741.73,692.89 739.90,693.86 738.08,694.84 736.25,695.81 734.43,696.79 732.61,697.77 730.79,698.74 728.97,699.72 727.16,700.70 725.34,701.68 723.53,702.66 721.72,703.64 719.91,704.62 718.10,705.60 716.29,706.58 714.49,707.56 712.68,708.54 710.88,709.53 709.08,710.51 707.29,711.49 705.49,712.48 703.70,713.46 701.91,714.45 700.12,715.43 698.34,716.42 696.55,717.40 694.77,718.39 693.00,719.37 691.22,720.36 689.45,721.35 687.67,722.33 685.91,723.32 684.14,724.31 682.38,725.30 680.62,726.28 678.86,727.27 677.11,728.26 675.35,729.25 673.61,730.24 671.86,731.23 670.12,732.21 668.38,733.20 666.64,734.19 664.91,735.18 663.18,736.17 661.45,737.16 659.73,738.15 658.01,739.14 656.29,740.12 654.58,741.11 652.87,742.10 651.16,743.09 649.46,744.08 647.76,745.07 646.06,746.06 644.37,747.05 642.68,748.03 641.00,749.02 639.32,750.01 637.64,751.00 635.97,751.99 634.30,752.97 632.64,753.96 630.98,754.95 629.32,755.93 627.67,756.92 626.02,757.91 624.38,758.89 622.74,759.88 621.11,760.86 619.48,761.85 617.85,762.83 616.23,763.82 614.61,764.80 613.00,765.78 611.39,766.77 609.79,767.75 608.19,768.73 606.60,769.71 605.01,770.69 603.43,771.67 601.85,772.65 600.28,773.63 598.71,774.61 597.15,775.59 595.59,776.57 594.04,777.55 592.49,778.52 590.95,779.50 589.41,780.48 587.88,781.45 586.35,782.43 584.83,783.40 583.32,784.37 581.81,785.34 580.43,786.24" type="driving"/>
    <lane id="-1_1" index="1" disallow="pedestrian tram rail_urban rail rail_electric rail_fast ship" speed="22.22" length="388.69" width="3.75" shape="920.10,598.28 919.36,598.64 917.64,599.48 915.91,600.32 914.18,601.17 912.45,602.01 910.72,602.86 908.98,603.71 907.24,604.57 905.50,605.42 903.75,606.28 902.00,607.13 900.25,608.00 898.49,608.86 896.73,609.72 894.97,610.59 893.21,611.46 891.44,612.33 889.67,613.20 887.90,614.07 886.12,614.95 884.35,615.82 882.57,616.70 880.79,617.58 879.00,618.46 877.21,619.35 875.43,620.23 873.63,621.12 871.84,622.01 870.05,622.90 868.25,623.79 866.45,624.69 864.65,625.58 862.84,626.48 861.04,627.38 859.23,628.28 857.42,629.18 855.61,630.09 853.80,630.99 851.98,631.90 850.17,632.81 848.35,633.72 846.53,634.63 844.71,635.54 842.89,636.46 841.06,637.37 839.24,638.29 837.41,639.21 835.58,640.13 833.76,641.05 831.93,641.97 830.09,642.90 828.26,643.82 826.43,644.75 824.60,645.68 822.76,646.61 820.92,647.54 819.09,648.47 817.25,649.41 815.41,650.34 813.57,651.28 811.73,652.21 809.89,653.15 808.05,654.09 806.21,655.03 804.37,655.98 802.53,656.92 800.68,657.86 798.84,658.81 797.00,659.75 795.15,660.70 793.31,661.65 791.47,662.60 789.62,663.55 787.78,664.50 785.93,665.46 784.09,666.41 782.25,667.37 780.40,668.32 778.56,669.28 776.72,670.24 774.87,671.20 773.03,672.16 771.19,673.12 769.34,674.08 767.50,675.04 765.66,676.01 763.82,676.97 761.98,677.94 760.14,678.90 758.30,679.87 756.47,680.84 754.63,681.80 752.79,682.77 750.96,683.74 749.12,684.71 747.29,685.69 745.46,686.66 743.62,687.63 741.79,688.61 739.96,689.58 738.14,690.55 736.31,691.53 734.48,692.51 732.66,693.48 730.84,694.46 729.01,695.44 727.19,696.42 725.38,697.40 723.56,698.38 721.74,699.36 719.93,700.34 718.12,701.32 716.31,702.30 714.50,703.28 712.69,704.27 710.89,705.25 709.09,706.23 707.29,707.22 705.49,708.20 703.69,709.19 701.90,710.17 700.10,711.16 698.31,712.15 696.53,713.13 694.74,714.12 692.96,715.11 691.18,716.09 689.40,717.08 687.62,718.07 685.85,719.06 684.08,720.05 682.31,721.04 680.54,722.03 678.78,723.01 677.02,724.00 675.26,724.99 673.51,725.98 671.76,726.97 670.01,727.96 668.27,728.95 666.52,729.94 664.78,730.93 663.05,731.92 661.31,732.91 659.59,733.90 657.86,734.90 656.14,735.89 654.42,736.88 652.70,737.87 650.99,738.86 649.28,739.85 647.57,740.84 645.87,741.83 644.17,742.82 642.48,743.81 640.79,744.80 639.10,745.79 637.42,746.78 635.74,747.77 634.06,748.76 632.39,749.75 630.72,750.74 629.06,751.72 627.40,752.71 625.75,753.70 624.09,754.69 622.45,755.68 620.81,756.67 619.17,757.65 617.53,758.64 615.91,759.63 614.28,760.61 612.66,761.60 611.05,762.58 609.44,763.57 607.83,764.55 606.23,765.54 604.63,766.52 603.04,767.51 601.45,768.49 599.87,769.47 598.29,770.45 596.72,771.43 595.16,772.41 593.59,773.40 592.04,774.38 590.49,775.35 588.94,776.33 587.40,777.31 585.86,778.29 584.33,779.27 582.81,780.24 581.29,781.22 579.78,782.19 578.40,783.09" type="driving"/>