<?xml version='1.0' encoding='UTF-8'?>
<!-- generated on 2022-09-25 13:28:47 by Eclipse SUMO netconvert Version 1.13.0
<configuration xmlns:xsi="http://www.w3.org/2001/XMLSchema-instance" xsi:noNamespaceSchemaLocation="http://sumo.dlr.de/xsd/netconvertConfiguration.xsd">

    <input>
        <opendrive-files value="map_new_new\19\48\48.xodr"/>
    </input>

    <output>
        <output-file value="C:\Users\LinGe\AppData\Local\Temp\tmp_daywspb\48.net.xml"/>
    </output>

    <processing>
        <geometry.max-grade.fix value="false"/>
    </processing>

    <tls_building>
        <tls.left-green.time value="0"/>
    </tls_building>

    <junctions>
        <rectangular-lane-cut value="true"/>
    </junctions>

    <report>
        <aggregate-warnings value="5"/>
    </report>

</configuration>
-->
<net xmlns:xsi="http://www.w3.org/2001/XMLSchema-instance" version="1.9" junctionCornerDetail="5" rectangularLaneCut="true" limitTurnSpeed="5.50" xsi:noNamespaceSchemaLocation="http://sumo.dlr.de/xsd/net_file.xsd">
  <location netOffset="1.56,101.26" convBoundary="0.00,0.00,1102.73,1302.51" origBoundary="-1.56,-101.26,1101.18,1201.26" projParameter="!"/>
  <type id="bidirectional" priority="1" speed="1.39" disallow="pedestrian tram rail_urban rail rail_electric rail_fast ship" width="3.65"/>
  <type id="border" priority="0" speed="1.39" disallow="all" discard="1" width="0.10"/>
  <type id="driving" priority="1" speed="13.89" disallow="pedestrian tram rail_urban rail rail_electric rail_fast ship" width="3.65"/>
  <type id="entry" priority="1" speed="22.22" disallow="pedestrian tram rail_urban rail rail_electric rail_fast ship" width="3.65"/>
  <type id="exit" priority="1" speed="22.22" disallow="pedestrian tram rail_urban rail rail_electric rail_fast ship" width="3.65"/>
  <type id="median" priority="0" speed="1.39" disallow="all" discard="1" width="0.10"/>
  <type id="mwyEntry" priority="1" speed="22.22" allow="private emergency authority army vip passenger hov taxi bus coach delivery truck trailer motorcycle evehicle custom1 custom2" width="3.65"/>
  <type id="mwyExit" priority="1" speed="22.22" allow="private emergency authority army vip passenger hov taxi bus coach delivery truck trailer motorcycle evehicle custom1 custom2" width="3.65"/>
  <type id="none" priority="0" speed="1.39" disallow="all" discard="1" width="1.00"/>
  <type id="offRamp" priority="1" speed="22.22" allow="private emergency authority army vip passenger hov taxi bus coach delivery truck trailer motorcycle evehicle custom1 custom2" width="3.65"/>
  <type id="onRamp" priority="1" speed="22.22" allow="private emergency authority army vip passenger hov taxi bus coach delivery truck trailer motorcycle evehicle custom1 custom2" width="3.65"/>
  <type id="parking" priority="1" speed="1.39" disallow="pedestrian tram rail_urban rail rail_electric rail_fast ship" width="2.50"/>
  <type id="rail" priority="3" speed="33.33" allow="rail_urban rail rail_electric rail_fast" width="3.65"/>
  <type id="restricted" priority="0" speed="13.89" disallow="all" width="3.65"/>
  <type id="roadWorks" priority="0" speed="1.39" allow="authority" width="3.65"/>
  <type id="shoulder" priority="0" speed="1.39" disallow="all" discard="1" width="1.00"/>
  <type id="special1" priority="1" speed="22.22" allow="custom1" discard="1" width="3.65"/>
  <type id="special2" priority="1" speed="22.22" allow="custom2" discard="1" width="3.65"/>
  <type id="special3" priority="1" speed="22.22" allow="custom1 custom2" discard="1" width="3.65"/>
  <type id="stop" priority="1" speed="13.89" disallow="pedestrian tram rail_urban rail rail_electric rail_fast ship" width="3.65"/>
  <type id="tram" priority="2" speed="13.89" allow="tram" width="3.65"/>
  <edge id=":0_0" function="internal">
    <lane id=":0_0_0" index="0" disallow="pedestrian tram rail_urban rail rail_electric rail_fast ship" speed="20.83" length="27.54" width="3.75" shape="849.68,363.46 841.95,368.71,0.01 836.17,373.68,0.02 831.99,378.06,0.02 829.06,381.50,0.03"/>
  </edge>
  <edge id=":0_1" function="internal">
    <lane id=":0_1_0" index="0" disallow="pedestrian tram rail_urban rail rail_electric rail_fast ship" speed="22.22" length="27.75" width="3.75" shape="849.68,363.46 825.87,377.71"/>
    <lane id=":0_1_1" index="1" disallow="pedestrian tram rail_urban rail rail_electric rail_fast ship" speed="22.22" length="27.75" width="3.75" shape="847.75,360.24 823.94,374.49"/>
    <lane id=":0_1_2" index="2" disallow="pedestrian tram rail_urban rail rail_electric rail_fast ship" speed="22.22" length="27.75" width="3.75" shape="845.83,357.02 822.01,371.28"/>
  </edge>
  <edge id=":1_0" function="internal">
    <lane id=":1_0_0" index="0" disallow="pedestrian tram rail_urban rail rail_electric rail_fast ship" speed="20.83" length="97.17" width="3.75" shape="152.97,146.27,20.00 167.62,161.05,20.00 190.11,183.14,20.00 211.39,203.80,20.00 222.37,214.28,20.00"/>
  </edge>
  <edge id=":1_1" function="internal">
    <lane id=":1_1_0" index="0" disallow="pedestrian tram rail_urban rail rail_electric rail_fast ship" speed="22.22" length="97.28" width="3.75" shape="152.97,146.27,20.00 219.51,217.25,20.00"/>
    <lane id=":1_1_1" index="1" disallow="pedestrian tram rail_urban rail rail_electric rail_fast ship" speed="22.22" length="97.28" width="3.75" shape="150.24,148.84,20.00 216.77,219.81,20.00"/>
    <lane id=":1_1_2" index="2" disallow="pedestrian tram rail_urban rail rail_electric rail_fast ship" speed="22.22" length="97.28" width="3.75" shape="147.51,151.40,20.00 214.04,222.37,20.00"/>
  </edge>
  <edge id=":13.12_0" function="internal">
    <lane id=":13.12_0_0" index="0" disallow="pedestrian tram rail_urban rail rail_electric rail_fast ship" speed="19.44" length="0.30" width="3.75" shape="593.84,383.82,7.47 594.13,383.89,7.46"/>
  </edge>
  <edge id=":15.14_0" function="internal">
    <lane id=":15.14_0_0" index="0" disallow="pedestrian tram rail_urban rail rail_electric rail_fast ship" speed="19.44" length="0.30" width="3.75" shape="378.82,647.48,10.13 378.54,647.39,10.13"/>
  </edge>
  <edge id=":2_0" function="internal">
    <lane id=":2_0_0" index="0" disallow="pedestrian tram rail_urban rail rail_electric rail_fast ship" speed="20.83" length="78.82" width="3.75" shape="813.80,353.49,0.00 824.81,347.98,0.00 845.56,337.27,0.00 867.88,325.52,0.00 883.58,316.86"/>
  </edge>
  <edge id=":2_1" function="internal">
    <lane id=":2_1_0" index="0" disallow="pedestrian tram rail_urban rail rail_electric rail_fast ship" speed="22.22" length="78.50" width="3.75" shape="816.12,357.04 883.58,316.86"/>
    <lane id=":2_1_1" index="1" disallow="pedestrian tram rail_urban rail rail_electric rail_fast ship" speed="22.22" length="78.50" width="3.75" shape="818.05,360.26 885.49,320.08"/>
    <lane id=":2_1_2" index="2" disallow="pedestrian tram rail_urban rail rail_electric rail_fast ship" speed="22.22" length="78.50" width="3.75" shape="819.98,363.48 887.41,323.31"/>
  </edge>
  <edge id=":2.1_0" function="internal">
    <lane id=":2.1_0_0" index="0" disallow="pedestrian tram rail_urban rail rail_electric rail_fast ship" speed="22.22" length="0.30" width="3.75" shape="521.86,572.24 521.62,572.41"/>
    <lane id=":2.1_0_1" index="1" disallow="pedestrian tram rail_urban rail rail_electric rail_fast ship" speed="22.22" length="0.30" width="3.75" shape="519.65,569.20 519.41,569.38"/>
    <lane id=":2.1_0_2" index="2" disallow="pedestrian tram rail_urban rail rail_electric rail_fast ship" speed="22.22" length="0.30" width="3.75" shape="517.45,566.17 517.20,566.35"/>
  </edge>
  <edge id=":3_0" function="internal">
    <lane id=":3_0_0" index="0" disallow="pedestrian tram rail_urban rail rail_electric rail_fast ship" speed="20.83" length="22.89" width="3.75" shape="151.75,187.41,19.98 150.78,183.36,19.99 149.12,178.60,19.99 146.22,173.22,19.99 141.51,167.29,20.00"/>
  </edge>
  <edge id=":3_1" function="internal">
    <lane id=":3_1_0" index="0" disallow="pedestrian tram rail_urban rail rail_electric rail_fast ship" speed="22.22" length="21.40" width="3.75" shape="156.16,182.90,20.00 141.51,167.29,20.00"/>
    <lane id=":3_1_1" index="1" disallow="pedestrian tram rail_urban rail rail_electric rail_fast ship" speed="22.22" length="21.40" width="3.75" shape="158.89,180.33,20.00 144.25,164.72,20.00"/>
    <lane id=":3_1_2" index="2" disallow="pedestrian tram rail_urban rail rail_electric rail_fast ship" speed="22.22" length="21.40" width="3.75" shape="161.63,177.76,20.00 146.98,162.15,20.00"/>
  </edge>
  <edge id=":4.3_0" function="internal">
    <lane id=":4.3_0_0" index="0" disallow="pedestrian tram rail_urban rail rail_electric rail_fast ship" speed="22.22" length="0.30" width="3.75" shape="508.23,554.01 508.48,553.84"/>
    <lane id=":4.3_0_1" index="1" disallow="pedestrian tram rail_urban rail rail_electric rail_fast ship" speed="22.22" length="0.30" width="3.75" shape="510.44,557.05 510.68,556.87"/>
    <lane id=":4.3_0_2" index="2" disallow="pedestrian tram rail_urban rail rail_electric rail_fast ship" speed="22.22" length="0.30" width="3.75" shape="512.65,560.08 512.89,559.90"/>
  </edge>
  <edge id=":8.7_0" function="internal">
    <lane id=":8.7_0_0" index="0" disallow="pedestrian tram rail_urban rail rail_electric rail_fast ship" speed="22.22" length="0.30" width="3.75" shape="657.48,700.31,20.00 657.67,700.54,20.00"/>
    <lane id=":8.7_0_1" index="1" disallow="pedestrian tram rail_urban rail rail_electric rail_fast ship" speed="22.22" length="0.30" width="3.75" shape="654.57,702.66,20.00 654.76,702.90,20.00"/>
    <lane id=":8.7_0_2" index="2" disallow="pedestrian tram rail_urban rail rail_electric rail_fast ship" speed="22.22" length="0.30" width="3.75" shape="651.65,705.02,20.00 651.84,705.25,20.00"/>
  </edge>
  <edge id=":9.10_0" function="internal">
    <lane id=":9.10_0_0" index="0" disallow="pedestrian tram rail_urban rail rail_electric rail_fast ship" speed="22.22" length="0.30" width="3.75" shape="639.97,714.83,20.00 639.79,714.60,20.00"/>
    <lane id=":9.10_0_1" index="1" disallow="pedestrian tram rail_urban rail rail_electric rail_fast ship" speed="22.22" length="0.30" width="3.75" shape="642.89,712.48,20.00 642.70,712.25,20.00"/>
    <lane id=":9.10_0_2" index="2" disallow="pedestrian tram rail_urban rail rail_electric rail_fast ship" speed="22.22" length="0.30" width="3.75" shape="645.81,710.13,20.00 645.62,709.89,20.00"/>
  </edge>
  <edge id="-0" from="0.begin" to="0" priority="1" type="driving" shape="1102.73,202.87 1101.89,203.39 1101.04,203.92 1100.16,204.45 1099.27,205.00 1098.37,205.55 1097.45,206.11 1096.52,206.68 1095.56,207.26 1094.60,207.85 1093.61,208.44 1092.62,209.05 1091.60,209.66 1090.58,210.28 1089.53,210.91 1088.48,211.55 1087.40,212.19 1086.32,212.85 1085.21,213.51 1084.10,214.18 1082.97,214.86 1081.82,215.54 1080.66,216.24 1079.48,216.94 1078.30,217.65 1077.09,218.37 1075.88,219.09 1074.65,219.82 1073.40,220.57 1072.14,221.31 1070.87,222.07 1069.59,222.83 1068.29,223.60 1066.98,224.38 1065.65,225.17 1064.31,225.96 1062.96,226.76 1061.60,227.57 1060.22,228.38 1058.83,229.21 1057.43,230.04 1056.01,230.87 1054.58,231.72 1053.14,232.57 1051.69,233.42 1050.23,234.29 1048.75,235.16 1047.26,236.04 1045.76,236.92 1044.24,237.81 1042.72,238.71 1041.18,239.62 1039.63,240.53 1038.07,241.45 1036.50,242.37 1034.92,243.30 1033.33,244.24 1031.72,245.18 1030.10,246.13 1028.48,247.09 1026.84,248.05 1025.19,249.02 1023.53,250.00 1021.86,250.98 1020.18,251.97 1018.49,252.96 1016.78,253.96 1015.07,254.97 1013.35,255.98 1011.62,256.99 1009.87,258.02 1008.12,259.05 1006.36,260.08 1004.59,261.12 1002.80,262.17 1001.01,263.22 999.21,264.28 997.40,265.34 995.58,266.41 993.75,267.48 991.91,268.56 990.07,269.64 988.21,270.73 986.35,271.83 984.47,272.93 982.59,274.03 980.70,275.14 978.80,276.26 976.89,277.38 974.98,278.50 973.05,279.63 971.12,280.77 969.18,281.91 967.23,283.05 965.27,284.20 963.31,285.35 961.34,286.51 959.36,287.68 957.37,288.84 955.38,290.02 953.38,291.19 951.37,292.37 949.35,293.56 947.33,294.75 945.30,295.94 943.26,297.14 941.22,298.35 939.17,299.55 937.11,300.76 935.05,301.98 932.98,303.20 930.90,304.42 928.82,305.65 926.73,306.88 924.63,308.12 922.53,309.35 920.43,310.60 918.31,311.84 916.20,313.09 914.07,314.35 911.94,315.60 909.81,316.87 907.67,318.13 905.52,319.40 903.37,320.67 901.22,321.94 899.05,323.22 896.89,324.50 894.72,325.79 892.54,327.08 890.36,328.37 888.18,329.66 885.99,330.96 883.80,332.26 881.60,333.56 879.40,334.87 877.19,336.18 874.98,337.49 872.77,338.80 870.55,340.12 868.33,341.44 866.11,342.76 863.88,344.09 861.65,345.41 859.41,346.75 857.17,348.08 854.93,349.41 852.69,350.75 850.44,352.09 848.19,353.43 845.93,354.78 843.68,356.13 841.42,357.47">
    <lane id="-0_0" index="0" disallow="pedestrian tram rail_urban rail rail_electric rail_fast ship" speed="22.22" length="299.68" width="3.75" shape="1107.65,210.86 1106.81,211.38 1105.94,211.91 1105.06,212.45 1104.17,212.99 1103.26,213.55 1102.33,214.12 1101.39,214.69 1100.43,215.27 1099.46,215.86 1098.47,216.46 1097.47,217.07 1096.45,217.68 1095.42,218.31 1094.37,218.94 1093.31,219.58 1092.24,220.23 1091.14,220.88 1090.04,221.55 1088.92,222.22 1087.78,222.90 1086.63,223.59 1085.47,224.28 1084.29,224.99 1083.10,225.70 1081.90,226.42 1080.68,227.15 1079.44,227.88 1078.20,228.62 1076.94,229.37 1075.66,230.13 1074.37,230.89 1073.07,231.67 1071.76,232.45 1070.43,233.23 1069.09,234.03 1067.74,234.83 1066.37,235.64 1064.99,236.45 1063.60,237.28 1062.20,238.11 1060.78,238.94 1059.35,239.79 1057.91,240.64 1056.45,241.50 1054.99,242.36 1053.51,243.23 1052.02,244.11 1050.52,245.00 1049.00,245.89 1047.48,246.79 1045.94,247.70 1044.39,248.61 1042.83,249.53 1041.26,250.45 1039.67,251.38 1038.08,252.32 1036.47,253.27 1034.85,254.22 1033.23,255.17 1031.59,256.14 1029.94,257.11 1028.28,258.08 1026.61,259.06 1024.92,260.05 1023.23,261.04 1021.53,262.04 1019.82,263.05 1018.09,264.06 1016.36,265.08 1014.62,266.10 1012.87,267.13 1011.10,268.17 1009.33,269.21 1007.55,270.25 1005.76,271.30 1003.96,272.36 1002.15,273.42 1000.33,274.49 998.50,275.56 996.66,276.64 994.81,277.73 992.96,278.82 991.09,279.91 989.22,281.01 987.34,282.12 985.45,283.23 983.55,284.34 981.64,285.46 979.72,286.59 977.80,287.71 975.87,288.85 973.93,289.99 971.98,291.13 970.02,292.28 968.06,293.44 966.09,294.59 964.11,295.76 962.12,296.93 960.13,298.10 958.13,299.27 956.12,300.46 954.10,301.64 952.08,302.83 950.05,304.02 948.02,305.22 945.97,306.43 943.92,307.63 941.87,308.84 939.80,310.06 937.74,311.28 935.66,312.50 933.58,313.73 931.49,314.96 929.40,316.19 927.30,317.43 925.19,318.67 923.08,319.92 920.96,321.17 918.84,322.42 916.71,323.68 914.58,324.94 912.44,326.20 910.29,327.47 908.14,328.74 905.99,330.01 903.83,331.29 901.66,332.57 899.49,333.85 897.32,335.14 895.14,336.43 892.96,337.73 890.77,339.02 888.58,340.32 886.38,341.62 884.18,342.93 881.98,344.24 879.77,345.55 877.56,346.86 875.34,348.18 873.12,349.50 870.90,350.82 868.67,352.14 866.44,353.47 864.21,354.80 861.97,356.13 859.73,357.47 857.49,358.80 855.24,360.14 852.99,361.48 850.74,362.83 849.68,363.46" type="driving"/>
    <lane id="-0_1" index="1" disallow="pedestrian tram rail_urban rail rail_electric rail_fast ship" speed="22.22" length="299.68" width="3.75" shape="1105.68,207.66 1104.84,208.18 1103.98,208.71 1103.10,209.25 1102.21,209.80 1101.30,210.35 1100.38,210.92 1099.44,211.49 1098.49,212.07 1097.52,212.66 1096.53,213.25 1095.53,213.86 1094.51,214.48 1093.48,215.10 1092.44,215.73 1091.38,216.37 1090.30,217.01 1089.21,217.67 1088.11,218.33 1086.99,219.00 1085.86,219.68 1084.71,220.37 1083.55,221.07 1082.37,221.77 1081.18,222.48 1079.97,223.20 1078.76,223.92 1077.52,224.66 1076.28,225.40 1075.02,226.15 1073.75,226.91 1072.46,227.67 1071.16,228.44 1069.85,229.22 1068.52,230.01 1067.18,230.80 1065.83,231.60 1064.46,232.41 1063.08,233.23 1061.69,234.05 1060.29,234.88 1058.87,235.72 1057.44,236.56 1056.00,237.41 1054.55,238.27 1053.08,239.13 1051.61,240.00 1050.12,240.88 1048.61,241.77 1047.10,242.66 1045.57,243.56 1044.04,244.46 1042.49,245.38 1040.93,246.29 1039.35,247.22 1037.77,248.15 1036.18,249.09 1034.57,250.03 1032.95,250.98 1031.33,251.94 1029.69,252.90 1028.04,253.87 1026.38,254.85 1024.71,255.83 1023.03,256.82 1021.33,257.81 1019.63,258.81 1017.92,259.82 1016.20,260.83 1014.46,261.84 1012.72,262.87 1010.97,263.90 1009.21,264.93 1007.43,265.97 1005.65,267.02 1003.86,268.07 1002.06,269.13 1000.25,270.19 998.43,271.26 996.60,272.33 994.76,273.41 992.91,274.49 991.06,275.58 989.19,276.68 987.32,277.78 985.44,278.88 983.55,279.99 981.65,281.11 979.74,282.23 977.83,283.35 975.90,284.48 973.97,285.62 972.03,286.76 970.08,287.90 968.12,289.05 966.16,290.20 964.19,291.36 962.21,292.52 960.22,293.69 958.23,294.86 956.23,296.04 954.22,297.22 952.20,298.41 950.18,299.60 948.15,300.79 946.11,301.99 944.07,303.19 942.02,304.40 939.96,305.61 937.90,306.83 935.83,308.05 933.76,309.27 931.67,310.50 929.59,311.73 927.49,312.96 925.39,314.20 923.28,315.44 921.17,316.69 919.05,317.94 916.93,319.19 914.80,320.45 912.67,321.71 910.53,322.97 908.38,324.24 906.23,325.51 904.08,326.79 901.92,328.06 899.75,329.34 897.58,330.63 895.41,331.92 893.23,333.21 891.05,334.50 888.86,335.80 886.67,337.10 884.47,338.40 882.27,339.70 880.06,341.01 877.85,342.32 875.64,343.64 873.43,344.95 871.20,346.27 868.98,347.60 866.75,348.92 864.52,350.25 862.29,351.58 860.05,352.91 857.81,354.25 855.57,355.58 853.32,356.92 851.07,358.26 848.82,359.61 847.75,360.24" type="driving"/>
    <lane id="-0_2" index="2" disallow="pedestrian tram rail_urban rail rail_electric rail_fast ship" speed="22.22" length="299.68" width="3.75" shape="1103.72,204.47 1102.88,204.99 1102.02,205.52 1101.14,206.05 1100.25,206.60 1099.35,207.15 1098.43,207.71 1097.49,208.28 1096.54,208.86 1095.57,209.45 1094.59,210.05 1093.59,210.65 1092.57,211.27 1091.55,211.89 1090.50,212.52 1089.44,213.15 1088.37,213.80 1087.28,214.45 1086.18,215.12 1085.06,215.79 1083.93,216.47 1082.78,217.15 1081.62,217.85 1080.45,218.55 1079.26,219.26 1078.05,219.98 1076.84,220.70 1075.61,221.44 1074.36,222.18 1073.10,222.93 1071.83,223.68 1070.54,224.45 1069.25,225.22 1067.93,225.99 1066.61,226.78 1065.27,227.57 1063.92,228.37 1062.55,229.18 1061.18,230.00 1059.78,230.82 1058.38,231.65 1056.97,232.49 1055.54,233.33 1054.10,234.18 1052.64,235.04 1051.18,235.90 1049.70,236.77 1048.21,237.65 1046.71,238.54 1045.20,239.43 1043.67,240.33 1042.13,241.23 1040.58,242.14 1039.02,243.06 1037.45,243.99 1035.87,244.92 1034.28,245.86 1032.67,246.80 1031.05,247.75 1029.43,248.71 1027.79,249.67 1026.14,250.64 1024.48,251.61 1022.81,252.60 1021.13,253.58 1019.43,254.58 1017.73,255.58 1016.02,256.58 1014.30,257.59 1012.56,258.61 1010.82,259.63 1009.07,260.66 1007.31,261.70 1005.53,262.74 1003.75,263.78 1001.96,264.84 1000.16,265.89 998.35,266.95 996.53,268.02 994.70,269.10 992.86,270.17 991.02,271.26 989.16,272.35 987.30,273.44 985.42,274.54 983.54,275.65 981.65,276.76 979.75,277.87 977.84,278.99 975.93,280.12 974.00,281.25 972.07,282.38 970.13,283.52 968.18,284.67 966.22,285.82 964.26,286.97 962.29,288.13 960.31,289.29 958.32,290.46 956.33,291.63 954.33,292.81 952.32,293.99 950.30,295.18 948.28,296.37 946.25,297.56 944.21,298.76 942.17,299.96 940.12,301.17 938.06,302.38 936.00,303.59 933.93,304.81 931.85,306.04 929.77,307.26 927.68,308.50 925.59,309.73 923.49,310.97 921.38,312.21 919.27,313.46 917.15,314.71 915.03,315.96 912.90,317.22 910.76,318.48 908.62,319.74 906.48,321.01 904.33,322.28 902.17,323.56 900.01,324.84 897.84,326.12 895.67,327.40 893.50,328.69 891.32,329.98 889.14,331.27 886.95,332.57 884.75,333.87 882.56,335.17 880.36,336.48 878.15,337.79 875.94,339.10 873.73,340.41 871.51,341.73 869.29,343.05 867.06,344.37 864.84,345.70 862.60,347.03 860.37,348.36 858.13,349.69 855.89,351.02 853.65,352.36 851.40,353.70 849.15,355.04 846.89,356.39 845.83,357.02" type="driving"/>
  </edge>
  <edge id="-1" from="0" to="2.1" priority="1" type="driving" shape="841.42,357.47 839.60,358.56 837.79,359.64 835.97,360.73 834.15,361.82 832.33,362.91 830.51,364.00 828.69,365.09 826.86,366.18 825.04,367.28 823.21,368.37 821.38,369.47 819.55,370.56 817.72,371.66 815.89,372.76 814.06,373.86 812.23,374.97 810.39,376.07 808.56,377.17 806.72,378.28 804.88,379.38 803.05,380.49 801.21,381.60 799.37,382.70 797.53,383.81 795.69,384.92 793.85,386.03 792.01,387.15 790.17,388.26 788.33,389.37 786.48,390.49 784.64,391.60 782.80,392.71 780.96,393.83 779.11,394.95 777.27,396.06 775.43,397.18 773.59,398.30 771.74,399.42 769.90,400.54 768.06,401.66 766.22,402.78 764.37,403.90 762.53,405.02 760.69,406.14 758.85,407.26 757.01,408.38 755.17,409.51 753.33,410.63 751.49,411.75 749.65,412.88 747.81,414.00 745.98,415.12 744.14,416.25 742.31,417.37 740.47,418.49 738.64,419.62 736.81,420.74 734.97,421.87 733.14,422.99 731.31,424.12 729.49,425.24 727.66,426.37 725.83,427.49 724.01,428.61 722.18,429.74 720.36,430.86 718.54,431.99 716.72,433.11 714.90,434.24 713.09,435.36 711.27,436.48 709.46,437.61 707.65,438.73 705.84,439.85 704.03,440.97 702.23,442.09 700.42,443.22 698.62,444.34 696.82,445.46 695.02,446.58 693.22,447.70 691.43,448.82 689.64,449.94 687.85,451.05 686.06,452.17 684.28,453.29 682.49,454.41 680.71,455.52 678.94,456.64 677.16,457.75 675.39,458.87 673.62,459.98 671.85,461.09 670.08,462.20 668.32,463.31 666.56,464.42 664.80,465.53 663.05,466.64 661.30,467.75 659.55,468.86 657.81,469.96 656.06,471.07 654.32,472.17 652.59,473.28 650.86,474.38 649.13,475.48 647.40,476.58 645.68,477.68 643.96,478.77 642.24,479.87 640.53,480.97 638.82,482.06 637.11,483.15 635.41,484.25 633.71,485.34 632.02,486.43 630.33,487.52 628.64,488.60 626.95,489.69 625.27,490.77 623.60,491.85 621.93,492.94 620.26,494.02 618.59,495.09 616.94,496.17 615.28,497.25 613.63,498.32 611.98,499.39 610.34,500.47 608.70,501.54 607.07,502.60 605.44,503.67 603.81,504.73 602.19,505.80 600.57,506.86 598.96,507.92 597.35,508.98 595.75,510.03 594.16,511.09 592.56,512.14 590.97,513.19 589.39,514.24 587.81,515.29 586.24,516.33 584.67,517.37 583.11,518.41 581.55,519.45 580.00,520.49 578.45,521.53 576.91,522.56 575.37,523.59 573.84,524.62 572.31,525.65 570.79,526.67 569.28,527.69 567.77,528.72 566.26,529.73 564.77,530.75 563.27,531.76 561.79,532.78 560.30,533.78 558.83,534.79 557.36,535.80 555.90,536.80 554.44,537.80 552.99,538.80 551.54,539.79 550.10,540.78 548.67,541.77 547.24,542.76 545.82,543.75 544.40,544.73 543.00,545.71 541.59,546.69 540.20,547.66 538.81,548.64 537.43,549.61 536.05,550.57 534.68,551.54 533.32,552.50 531.96,553.46 530.61,554.41 529.27,555.37 527.93,556.32 526.60,557.26 525.28,558.21 523.97,559.15 522.66,560.09 521.36,561.03 520.06,561.96 518.78,562.89 517.50,563.82 516.22,564.74">
    <lane id="-1_0" index="0" disallow="pedestrian tram rail_urban rail rail_electric rail_fast ship" speed="22.22" length="361.35" width="3.75" shape="825.87,377.71 824.38,378.60 822.55,379.70 820.72,380.80 818.89,381.90 817.05,383.00 815.22,384.10 813.39,385.21 811.55,386.31 809.72,387.41 807.88,388.52 806.05,389.63 804.21,390.73 802.37,391.84 800.53,392.95 798.69,394.06 796.86,395.17 795.02,396.28 793.18,397.39 791.34,398.51 789.50,399.62 787.65,400.73 785.81,401.85 783.97,402.96 782.13,404.08 780.29,405.20 778.45,406.31 776.61,407.43 774.77,408.55 772.93,409.67 771.09,410.79 769.25,411.91 767.41,413.03 765.57,414.15 763.73,415.27 761.89,416.39 760.05,417.51 758.21,418.63 756.38,419.75 754.54,420.87 752.71,422.00 750.87,423.12 749.04,424.24 747.20,425.36 745.37,426.49 743.54,427.61 741.71,428.73 739.88,429.86 738.05,430.98 736.22,432.10 734.40,433.23 732.57,434.35 730.75,435.47 728.93,436.60 727.11,437.72 725.29,438.84 723.47,439.96 721.65,441.09 719.83,442.21 718.02,443.33 716.21,444.45 714.40,445.57 712.59,446.70 710.78,447.82 708.98,448.94 707.17,450.06 705.37,451.18 703.57,452.30 701.78,453.42 699.98,454.53 698.19,455.65 696.39,456.77 694.61,457.89 692.82,459.00 691.03,460.12 689.25,461.24 687.47,462.35 685.69,463.46 683.92,464.58 682.15,465.69 680.38,466.80 678.61,467.91 676.84,469.03 675.08,470.13 673.32,471.24 671.57,472.35 669.81,473.46 668.06,474.57 666.31,475.67 664.57,476.78 662.83,477.88 661.09,478.98 659.35,480.09 657.62,481.19 655.89,482.29 654.16,483.39 652.44,484.48 650.72,485.58 649.00,486.68 647.29,487.77 645.58,488.86 643.87,489.96 642.17,491.05 640.47,492.14 638.78,493.22 637.09,494.31 635.40,495.40 633.72,496.48 632.04,497.57 630.36,498.65 628.69,499.73 627.02,500.81 625.36,501.88 623.70,502.96 622.04,504.03 620.39,505.11 618.74,506.18 617.10,507.25 615.46,508.32 613.83,509.38 612.20,510.45 610.57,511.51 608.95,512.57 607.33,513.64 605.72,514.69 604.11,515.75 602.51,516.81 600.91,517.86 599.32,518.91 597.73,519.96 596.15,521.01 594.57,522.05 593.00,523.10 591.43,524.14 589.87,525.18 588.31,526.22 586.76,527.25 585.21,528.29 583.67,529.32 582.13,530.35 580.60,531.37 579.07,532.40 577.55,533.42 576.04,534.44 574.53,535.46 573.02,536.48 571.52,537.49 570.03,538.51 568.54,539.52 567.06,540.52 565.59,541.53 564.12,542.53 562.65,543.53 561.20,544.53 559.74,545.53 558.30,546.52 556.86,547.51 555.43,548.50 554.00,549.49 552.58,550.47 551.16,551.45 549.76,552.43 548.35,553.40 546.96,554.38 545.57,555.35 544.19,556.31 542.81,557.28 541.44,558.24 540.08,559.20 538.72,560.16 537.38,561.11 536.03,562.06 534.70,563.01 533.37,563.95 532.05,564.90 530.74,565.83 529.43,566.77 528.13,567.70 526.84,568.63 525.55,569.56 524.27,570.48 523.00,571.41 521.86,572.24" type="driving"/>
    <lane id="-1_1" index="1" disallow="pedestrian tram rail_urban rail rail_electric rail_fast ship" speed="22.22" length="361.35" width="3.75" shape="823.94,374.49 822.45,375.39 820.62,376.49 818.79,377.59 816.96,378.69 815.12,379.79 813.29,380.89 811.46,381.99 809.62,383.10 807.78,384.20 805.95,385.31 804.11,386.41 802.27,387.52 800.43,388.63 798.60,389.74 796.76,390.85 794.92,391.96 793.08,393.07 791.24,394.19 789.39,395.30 787.55,396.41 785.71,397.53 783.87,398.64 782.03,399.76 780.19,400.87 778.35,401.99 776.50,403.11 774.66,404.23 772.82,405.35 770.98,406.46 769.14,407.58 767.30,408.70 765.46,409.82 763.62,410.94 761.78,412.07 759.94,413.19 758.10,414.31 756.26,415.43 754.42,416.55 752.59,417.68 750.75,418.80 748.91,419.92 747.08,421.04 745.24,422.17 743.41,423.29 741.58,424.41 739.75,425.54 737.92,426.66 736.09,427.78 734.26,428.91 732.43,430.03 730.61,431.16 728.78,432.28 726.96,433.40 725.14,434.53 723.32,435.65 721.50,436.77 719.68,437.90 717.86,439.02 716.05,440.14 714.23,441.26 712.42,442.39 710.61,443.51 708.81,444.63 707.00,445.75 705.19,446.87 703.39,447.99 701.59,449.11 699.79,450.23 698.00,451.35 696.20,452.47 694.41,453.59 692.62,454.71 690.83,455.82 689.05,456.94 687.26,458.06 685.48,459.17 683.70,460.29 681.93,461.40 680.15,462.52 678.38,463.63 676.61,464.74 674.85,465.85 673.08,466.96 671.32,468.07 669.56,469.18 667.81,470.29 666.06,471.40 664.31,472.50 662.56,473.61 660.82,474.71 659.08,475.82 657.34,476.92 655.61,478.02 653.87,479.12 652.15,480.22 650.42,481.32 648.70,482.42 646.98,483.52 645.27,484.61 643.56,485.71 641.85,486.80 640.15,487.89 638.45,488.98 636.75,490.07 635.06,491.16 633.37,492.24 631.68,493.33 630.00,494.41 628.33,495.50 626.65,496.58 624.98,497.66 623.32,498.74 621.66,499.81 620.00,500.89 618.35,501.96 616.70,503.04 615.05,504.11 613.41,505.18 611.78,506.24 610.14,507.31 608.52,508.38 606.89,509.44 605.28,510.50 603.66,511.56 602.05,512.62 600.45,513.67 598.85,514.73 597.26,515.78 595.67,516.83 594.08,517.88 592.50,518.93 590.92,519.97 589.35,521.01 587.79,522.06 586.23,523.10 584.67,524.13 583.13,525.17 581.58,526.20 580.04,527.23 578.51,528.26 576.98,529.29 575.46,530.31 573.94,531.34 572.43,532.36 570.92,533.37 569.42,534.39 567.92,535.40 566.44,536.42 564.95,537.43 563.47,538.43 562.00,539.44 560.54,540.44 559.08,541.44 557.62,542.44 556.17,543.43 554.73,544.42 553.30,545.41 551.87,546.40 550.44,547.39 549.03,548.37 547.61,549.35 546.21,550.33 544.81,551.30 543.42,552.27 542.04,553.24 540.66,554.21 539.29,555.17 537.92,556.13 536.56,557.09 535.21,558.05 533.86,559.00 532.53,559.95 531.20,560.90 529.87,561.84 528.55,562.78 527.24,563.72 525.94,564.66 524.64,565.59 523.36,566.52 522.07,567.45 520.80,568.37 519.65,569.20" type="driving"/>