<?xml version='1.0' encoding='UTF-8'?>
<!-- generated on 2022-09-06 03:07:11 by Eclipse SUMO netconvert Version 1.13.0
<configuration xmlns:xsi="http://www.w3.org/2001/XMLSchema-instance" xsi:noNamespaceSchemaLocation="http://sumo.dlr.de/xsd/netconvertConfiguration.xsd">

    <input>
        <opendrive-files value="map\8\43336573\43336573.xodr"/>
    </input>

    <output>
        <output-file value="C:\Users\LinGe\AppData\Local\Temp\tmpcvlq00um\43336573.net.xml"/>
    </output>

    <processing>
        <geometry.max-grade.fix value="false"/>
    </processing>

    <tls_building>
        <tls.left-green.time value="0"/>
    </tls_building>

    <junctions>
        <rectangular-lane-cut value="true"/>
    </junctions>

    <report>
        <aggregate-warnings value="5"/>
    </report>

</configuration>
-->
<net xmlns:xsi="http://www.w3.org/2001/XMLSchema-instance" version="1.9" junctionCornerDetail="5" rectangularLaneCut="true" limitTurnSpeed="5.50" xsi:noNamespaceSchemaLocation="http://sumo.dlr.de/xsd/net_file.xsd">
  <location netOffset="301.35,-98.68" convBoundary="0.00,0.00,1102.85,1102.80" origBoundary="-301.35,98.68,801.51,1201.48" projParameter="!"/>
  <type id="bidirectional" priority="1" speed="1.39" disallow="pedestrian tram rail_urban rail rail_electric rail_fast ship" width="3.65"/>
  <type id="border" priority="0" speed="1.39" disallow="all" discard="1" width="0.10"/>
  <type id="driving" priority="1" speed="13.89" disallow="pedestrian tram rail_urban rail rail_electric rail_fast ship" width="3.65"/>
  <type id="entry" priority="1" speed="22.22" disallow="pedestrian tram rail_urban rail rail_electric rail_fast ship" width="3.65"/>
  <type id="exit" priority="1" speed="22.22" disallow="pedestrian tram rail_urban rail rail_electric rail_fast ship" width="3.65"/>
  <type id="median" priority="0" speed="1.39" disallow="all" discard="1" width="0.10"/>
  <type id="mwyEntry" priority="1" speed="22.22" allow="private emergency authority army vip passenger hov taxi bus coach delivery truck trailer motorcycle evehicle custom1 custom2" width="3.65"/>
  <type id="mwyExit" priority="1" speed="22.22" allow="private emergency authority army vip passenger hov taxi bus coach delivery truck trailer motorcycle evehicle custom1 custom2" width="3.65"/>
  <type id="none" priority="0" speed="1.39" disallow="all" discard="1" width="1.00"/>
  <type id="offRamp" priority="1" speed="22.22" allow="private emergency authority army vip passenger hov taxi bus coach delivery truck trailer motorcycle evehicle custom1 custom2" width="3.65"/>
  <type id="onRamp" priority="1" speed="22.22" allow="private emergency authority army vip passenger hov taxi bus coach delivery truck trailer motorcycle evehicle custom1 custom2" width="3.65"/>
  <type id="parking" priority="1" speed="1.39" disallow="pedestrian tram rail_urban rail rail_electric rail_fast ship" width="2.50"/>
  <type id="rail" priority="3" speed="33.33" allow="rail_urban rail rail_electric rail_fast" width="3.65"/>
  <type id="restricted" priority="0" speed="13.89" disallow="all" width="3.65"/>
  <type id="roadWorks" priority="0" speed="1.39" allow="authority" width="3.65"/>
  <type id="shoulder" priority="0" speed="1.39" disallow="all" discard="1" width="1.00"/>
  <type id="special1" priority="1" speed="22.22" allow="custom1" discard="1" width="3.65"/>
  <type id="special2" priority="1" speed="22.22" allow="custom2" discard="1" width="3.65"/>
  <type id="special3" priority="1" speed="22.22" allow="custom1 custom2" discard="1" width="3.65"/>
  <type id="stop" priority="1" speed="13.89" disallow="pedestrian tram rail_urban rail rail_electric rail_fast ship" width="3.65"/>
  <type id="tram" priority="2" speed="13.89" allow="tram" width="3.65"/>
  <edge id=":0_0" function="internal">
    <lane id=":0_0_0" index="0" disallow="pedestrian tram rail_urban rail rail_electric rail_fast ship" speed="22.22" length="56.31" width="3.75" shape="90.48,942.02 124.24,896.95"/>
  </edge>
  <edge id=":0_1" function="internal">
    <lane id=":0_1_0" index="0" disallow="pedestrian tram rail_urban rail rail_electric rail_fast ship" speed="22.22" length="56.87" width="3.75" shape="90.48,942.02 128.24,899.07"/>
    <lane id=":0_1_1" index="1" disallow="pedestrian tram rail_urban rail rail_electric rail_fast ship" speed="22.22" length="56.87" width="3.75" shape="93.40,944.37 130.96,901.66"/>
    <lane id=":0_1_2" index="2" disallow="pedestrian tram rail_urban rail rail_electric rail_fast ship" speed="22.22" length="56.87" width="3.75" shape="96.33,946.71 133.68,904.24"/>
  </edge>
  <edge id=":1_0" function="internal">
    <lane id=":1_0_0" index="0" disallow="pedestrian tram rail_urban rail rail_electric rail_fast ship" speed="15.97" length="8.16" width="3.75" shape="541.36,594.42 548.16,589.91,0.00"/>
  </edge>
  <edge id=":1.0_0" function="internal">
    <lane id=":1.0_0_0" index="0" disallow="pedestrian tram rail_urban rail rail_electric rail_fast ship" speed="22.22" length="0.30" width="3.75" shape="203.71,857.53 203.50,857.73"/>
    <lane id=":1.0_0_1" index="1" disallow="pedestrian tram rail_urban rail rail_electric rail_fast ship" speed="22.22" length="0.30" width="3.75" shape="201.20,854.75 200.97,854.95"/>
    <lane id=":1.0_0_2" index="2" disallow="pedestrian tram rail_urban rail rail_electric rail_fast ship" speed="22.22" length="0.30" width="3.75" shape="198.68,851.98 198.45,852.18"/>
  </edge>
  <edge id=":12.11_0" function="internal">
    <lane id=":12.11_0_0" index="0" disallow="pedestrian tram rail_urban rail rail_electric rail_fast ship" speed="22.22" length="0.30" width="3.75" shape="692.78,442.07,20.00 692.58,441.84,20.00"/>
    <lane id=":12.11_0_1" index="1" disallow="pedestrian tram rail_urban rail rail_electric rail_fast ship" speed="22.22" length="0.30" width="3.75" shape="695.60,439.60,20.00 695.41,439.38,20.00"/>
    <lane id=":12.11_0_2" index="2" disallow="pedestrian tram rail_urban rail rail_electric rail_fast ship" speed="22.22" length="0.30" width="3.75" shape="698.42,437.13,20.00 698.23,436.91,20.00"/>
  </edge>
  <edge id=":15.14_0" function="internal">
    <lane id=":15.14_0_0" index="0" disallow="pedestrian tram rail_urban rail rail_electric rail_fast ship" speed="13.89" length="0.30" width="3.75" shape="518.61,618.96,10.99 518.32,619.05,10.98"/>
  </edge>
  <edge id=":17.16_0" function="internal">
    <lane id=":17.16_0_0" index="0" disallow="pedestrian tram rail_urban rail rail_electric rail_fast ship" speed="22.22" length="0.30" width="3.75" shape="168.53,813.23,3.07 168.64,812.95,3.08"/>
  </edge>
  <edge id=":19.18_0" function="internal">
    <lane id=":19.18_0_0" index="0" disallow="pedestrian tram rail_urban rail rail_electric rail_fast ship" speed="11.11" length="0.29" width="3.75" shape="731.73,311.09,9.91 731.78,311.37,9.90"/>
  </edge>
  <edge id=":2_0" function="internal">
    <lane id=":2_0_0" index="0" disallow="pedestrian tram rail_urban rail rail_electric rail_fast ship" speed="16.67" length="28.17" width="3.75" shape="455.45,63.96,20.00 460.99,71.77,19.98 466.20,77.62,19.96 470.73,81.85,19.95 474.23,84.78,19.93"/>
  </edge>
  <edge id=":2_1" function="internal">
    <lane id=":2_1_0" index="0" disallow="pedestrian tram rail_urban rail rail_electric rail_fast ship" speed="22.22" length="28.39" width="3.75" shape="455.45,63.96,20.00 470.54,88.01,20.00"/>
    <lane id=":2_1_1" index="1" disallow="pedestrian tram rail_urban rail rail_electric rail_fast ship" speed="22.22" length="28.39" width="3.75" shape="452.28,65.95,20.00 467.36,90.00,20.00"/>
    <lane id=":2_1_2" index="2" disallow="pedestrian tram rail_urban rail rail_electric rail_fast ship" speed="22.22" length="28.39" width="3.75" shape="449.10,67.95,20.00 464.18,92.00,20.00"/>
  </edge>
  <edge id=":21.20_0" function="internal">
    <lane id=":21.20_0_0" index="0" disallow="pedestrian tram rail_urban rail rail_electric rail_fast ship" speed="9.72" length="0.29" width="3.75" shape="905.46,436.58,8.14 905.55,436.31,8.15"/>
  </edge>
  <edge id=":3_0" function="internal">
    <lane id=":3_0_0" index="0" disallow="pedestrian tram rail_urban rail rail_electric rail_fast ship" speed="18.06" length="61.28" width="3.75" shape="968.17,702.56,20.00 956.23,693.15,19.95 940.83,681.70,19.89 926.78,671.57,19.84 918.91,666.12,19.81"/>
  </edge>
  <edge id=":3_1" function="internal">
    <lane id=":3_1_0" index="0" disallow="pedestrian tram rail_urban rail rail_electric rail_fast ship" speed="22.22" length="61.48" width="3.75" shape="968.17,702.56,20.00 921.40,662.59,20.00"/>
    <lane id=":3_1_1" index="1" disallow="pedestrian tram rail_urban rail rail_electric rail_fast ship" speed="22.22" length="61.48" width="3.75" shape="970.59,699.69,20.00 923.85,659.75,20.00"/>
    <lane id=":3_1_2" index="2" disallow="pedestrian tram rail_urban rail rail_electric rail_fast ship" speed="22.22" length="61.48" width="3.75" shape="973.01,696.83,20.00 926.30,656.92,20.00"/>
  </edge>
  <edge id=":4_0" function="internal">
    <lane id=":4_0_0" index="0" disallow="pedestrian tram rail_urban rail rail_electric rail_fast ship" speed="18.06" length="7.97" width="3.75" shape="85.46,986.90,0.00 81.05,993.54"/>
  </edge>
  <edge id=":4_1" function="internal">
    <lane id=":4_1_0" index="0" disallow="pedestrian tram rail_urban rail rail_electric rail_fast ship" speed="22.22" length="8.02" width="3.75" shape="85.46,986.91 81.05,993.54"/>
    <lane id=":4_1_1" index="1" disallow="pedestrian tram rail_urban rail rail_electric rail_fast ship" speed="22.22" length="8.02" width="3.75" shape="82.35,984.80 77.91,991.48"/>
    <lane id=":4_1_2" index="2" disallow="pedestrian tram rail_urban rail rail_electric rail_fast ship" speed="22.22" length="8.02" width="3.75" shape="79.25,982.69 74.78,989.43"/>
  </edge>
  <edge id=":5_0" function="internal">
    <lane id=":5_0_0" index="0" disallow="pedestrian tram rail_urban rail rail_electric rail_fast ship" speed="22.22" length="49.14" width="3.75" shape="452.86,111.44,19.92 449.86,104.37,19.93 444.26,92.47,19.96 437.46,79.08,19.98 430.88,67.53,20.00"/>
  </edge>
  <edge id=":5_1" function="internal">
    <lane id=":5_1_0" index="0" disallow="pedestrian tram rail_urban rail rail_electric rail_fast ship" speed="22.22" length="48.57" width="3.75" shape="456.68,108.66,20.00 430.88,67.53,20.00"/>
    <lane id=":5_1_1" index="1" disallow="pedestrian tram rail_urban rail rail_electric rail_fast ship" speed="22.22" length="48.57" width="3.75" shape="459.86,106.67,20.00 434.05,65.53,20.00"/>
    <lane id=":5_1_2" index="2" disallow="pedestrian tram rail_urban rail rail_electric rail_fast ship" speed="22.22" length="48.57" width="3.75" shape="463.04,104.68,20.00 437.23,63.53,20.00"/>
  </edge>
  <edge id=":5.4_0" function="internal">
    <lane id=":5.4_0_0" index="0" disallow="pedestrian tram rail_urban rail rail_electric rail_fast ship" speed="22.22" length="0.30" width="3.75" shape="188.19,840.90 188.42,840.69"/>
    <lane id=":5.4_0_1" index="1" disallow="pedestrian tram rail_urban rail rail_electric rail_fast ship" speed="22.22" length="0.30" width="3.75" shape="190.72,843.67 190.94,843.47"/>
    <lane id=":5.4_0_2" index="2" disallow="pedestrian tram rail_urban rail rail_electric rail_fast ship" speed="22.22" length="0.30" width="3.75" shape="193.24,846.44 193.46,846.25"/>
  </edge>
  <edge id=":6_0" function="internal">
    <lane id=":6_0_0" index="0" disallow="pedestrian tram rail_urban rail rail_electric rail_fast ship" speed="16.67" length="8.04" width="3.75" shape="561.33,608.19,0.00 554.73,612.79"/>
  </edge>
  <edge id=":7_0" function="internal">
    <lane id=":7_0_0" index="0" disallow="pedestrian tram rail_urban rail rail_electric rail_fast ship" speed="10.79" length="17.49" width="3.75" shape="640.28,325.21,19.99 638.49,329.76,19.99 637.99,334.02,19.99 638.76,338.01,20.00 640.82,341.72,20.00"/>
  </edge>
  <edge id=":7_1" function="internal">
    <lane id=":7_1_0" index="0" disallow="pedestrian tram rail_urban rail rail_electric rail_fast ship" speed="22.22" length="14.93" width="3.75" shape="631.88,329.80,20.00 640.82,341.72,20.00"/>
    <lane id=":7_1_1" index="1" disallow="pedestrian tram rail_urban rail rail_electric rail_fast ship" speed="22.22" length="14.93" width="3.75" shape="628.88,332.04,20.00 637.83,343.99,20.00"/>
    <lane id=":7_1_2" index="2" disallow="pedestrian tram rail_urban rail rail_electric rail_fast ship" speed="22.22" length="14.93" width="3.75" shape="625.87,334.28,20.00 634.84,346.25,20.00"/>
  </edge>
  <edge id=":9.8_0" function="internal">
    <lane id=":9.8_0_0" index="0" disallow="pedestrian tram rail_urban rail rail_electric rail_fast ship" speed="22.22" length="0.30" width="3.75" shape="709.71,426.87,20.00 709.90,427.09,20.00"/>
    <lane id=":9.8_0_1" index="1" disallow="pedestrian tram rail_urban rail rail_electric rail_fast ship" speed="22.22" length="0.30" width="3.75" shape="706.88,429.34,20.00 707.08,429.56,20.00"/>
    <lane id=":9.8_0_2" index="2" disallow="pedestrian tram rail_urban rail rail_electric rail_fast ship" speed="22.22" length="0.30" width="3.75" shape="704.06,431.80,20.00 704.26,432.03,20.00"/>
  </edge>
  <edge id="-0" from="6" to="1.0" priority="1" type="driving" shape="552.69,602.80 551.56,603.58 550.42,604.37 549.28,605.16 548.13,605.95 546.98,606.73 545.82,607.52 544.66,608.31 543.49,609.09 542.31,609.88 541.13,610.67 539.95,611.46 538.76,612.25 537.56,613.04 536.36,613.83 535.15,614.62 533.94,615.41 532.72,616.20 531.50,616.99 530.27,617.78 529.04,618.58 527.80,619.37 526.56,620.17 525.31,620.96 524.05,621.76 522.79,622.56 521.53,623.36 520.26,624.16 518.99,624.96 517.71,625.76 516.42,626.56 515.13,627.37 513.84,628.17 512.53,628.98 511.23,629.79 509.92,630.60 508.60,631.41 507.28,632.22 505.96,633.04 504.63,633.85 503.29,634.67 501.95,635.49 500.61,636.31 499.25,637.14 497.90,637.96 496.54,638.79 495.17,639.62 493.80,640.45 492.43,641.28 491.05,642.12 489.66,642.95 488.27,643.79 486.88,644.63 485.48,645.48 484.07,646.32 482.67,647.17 481.25,648.02 479.83,648.88 478.41,649.73 476.98,650.59 475.55,651.45 474.11,652.31 472.67,653.18 471.22,654.05 469.77,654.92 468.31,655.79 466.85,656.67 465.38,657.55 463.91,658.43 462.44,659.32 460.96,660.21 459.47,661.10 457.98,662.00 456.49,662.90 454.99,663.80 453.49,664.70 451.98,665.61 450.47,666.52 448.95,667.44 447.43,668.36 445.90,669.28 444.37,670.20 442.84,671.13 441.30,672.07 439.75,673.00 438.20,673.94 436.65,674.89 435.09,675.83 433.53,676.79 431.97,677.74 430.40,678.70 428.82,679.67 427.24,680.63 425.66,681.60 424.07,682.58 422.48,683.56 420.88,684.54 419.28,685.53 417.67,686.53 416.06,687.52 414.45,688.53 412.83,689.53 411.21,690.54 409.58,691.56 407.95,692.58 406.32,693.60 404.68,694.63 403.03,695.67 401.39,696.70 399.73,697.75 398.08,698.80 396.42,699.85 394.75,700.91 393.08,701.97 391.41,703.04 389.74,704.11 388.05,705.19 386.37,706.28 384.68,707.37 382.99,708.46 381.29,709.56 379.59,710.66 377.88,711.78 376.18,712.89 374.46,714.01 372.74,715.14 371.02,716.27 369.30,717.41 367.57,718.56 365.84,719.71 364.10,720.86 362.36,722.02 360.61,723.19 358.87,724.36 357.11,725.54 355.36,726.73 353.60,727.92 351.83,729.12 350.06,730.32 348.29,731.53 346.52,732.75 344.74,733.97 342.96,735.20 341.17,736.44 339.38,737.68 337.58,738.93 335.79,740.18 333.98,741.44 332.18,742.71 330.37,743.98 328.56,745.27 326.74,746.55 324.92,747.85 323.10,749.15 321.27,750.46 319.44,751.78 317.60,753.10 315.76,754.43 313.92,755.76 312.08,757.11 310.23,758.46 308.38,759.82 306.52,761.18 304.66,762.56 302.80,763.94 300.93,765.33 299.06,766.72 297.19,768.12 295.31,769.53 293.43,770.95 291.54,772.38 289.66,773.81 287.77,775.25 285.87,776.70 283.97,778.16 282.07,779.62 280.17,781.09 278.26,782.57 276.35,784.06 274.44,785.56 272.52,787.06 270.60,788.58 268.67,790.10 266.75,791.63 264.81,793.16 262.88,794.71 260.94,796.26 259.00,797.83 257.06,799.40 255.11,800.98 253.16,802.56 251.21,804.16 249.25,805.77 247.29,807.38 245.33,809.00 243.36,810.63 241.39,812.27 239.42,813.92 237.44,815.58 235.47,817.25 233.48,818.93 231.50,820.61 229.51,822.30 227.52,824.01 225.53,825.72 223.53,827.44 221.53,829.17 219.53,830.91 217.52,832.66 215.51,834.42 213.50,836.19 211.49,837.97 209.47,839.76 207.45,841.56 205.42,843.36 203.40,845.18 201.37,847.01 199.34,848.85 197.30,850.69">
    <lane id="-0_0" index="0" disallow="pedestrian tram rail_urban rail rail_electric rail_fast ship" speed="22.22" length="429.21" width="3.75" shape="554.73,612.79 554.59,612.88 553.43,613.68 552.26,614.48 551.08,615.28 549.90,616.08 548.72,616.88 547.53,617.67 546.33,618.47 545.13,619.27 543.93,620.07 542.72,620.87 541.50,621.67 540.28,622.46 539.05,623.26 537.82,624.06 536.59,624.86 535.35,625.66 534.10,626.47 532.85,627.27 531.60,628.07 530.34,628.87 529.08,629.68 527.81,630.48 526.53,631.28 525.25,632.09 523.97,632.90 522.68,633.71 521.39,634.51 520.09,635.32 518.78,636.14 517.48,636.95 516.16,637.76 514.84,638.58 513.52,639.39 512.19,640.21 510.86,641.03 509.53,641.85 508.18,642.67 506.84,643.49 505.49,644.32 504.13,645.14 502.77,645.97 501.41,646.80 500.04,647.63 498.66,648.47 497.28,649.30 495.90,650.14 494.51,650.98 493.12,651.82 491.72,652.66 490.32,653.51 488.91,654.35 487.50,655.20 486.08,656.06 484.66,656.91 483.24,657.77 481.81,658.63 480.37,659.49 478.93,660.35 477.49,661.22 476.04,662.09 474.59,662.96 473.13,663.83 471.67,664.71 470.21,665.59 468.74,666.47 467.26,667.36 465.78,668.25 464.30,669.14 462.81,670.03 461.32,670.93 459.82,671.83 458.32,672.73 456.82,673.64 455.31,674.55 453.79,675.46 452.27,676.38 450.75,677.30 449.22,678.22 447.69,679.15 446.16,680.08 444.62,681.02 443.07,681.95 441.52,682.90 439.97,683.84 438.41,684.79 436.85,685.74 435.29,686.70 433.72,687.66 432.14,688.63 430.56,689.59 428.98,690.57 427.39,691.54 425.80,692.52 424.21,693.51 422.61,694.50 421.01,695.49 419.40,696.49 417.79,697.49 416.17,698.50 414.55,699.51 412.93,700.52 411.30,701.54 409.67,702.57 408.03,703.60 406.39,704.63 404.75,705.67 403.10,706.71 401.44,707.76 399.79,708.82 398.13,709.87 396.46,710.94 394.79,712.01 393.12,713.08 391.45,714.16 389.77,715.24 388.08,716.33 386.39,717.42 384.70,718.52 383.01,719.63 381.31,720.74 379.60,721.85 377.89,722.97 376.18,724.10 374.47,725.23 372.75,726.37 371.03,727.51 369.30,728.66 367.57,729.82 365.83,730.98 364.09,732.15 362.35,733.32 360.61,734.50 358.86,735.68 357.10,736.87 355.35,738.07 353.59,739.27 351.82,740.48 350.05,741.69 348.28,742.92 346.51,744.14 344.73,745.38 342.94,746.62 341.16,747.86 339.37,749.12 337.57,750.38 335.78,751.64 333.97,752.92 332.17,754.20 330.36,755.48 328.55,756.78 326.73,758.08 324.91,759.38 323.09,760.70 321.27,762.02 319.44,763.35 317.60,764.68 315.77,766.02 313.93,767.37 312.08,768.73 310.23,770.09 308.38,771.47 306.53,772.84 304.67,774.23 302.81,775.62 300.95,777.02 299.08,778.43 297.21,779.85 295.33,781.27 293.46,782.70 291.57,784.14 289.69,785.59 287.80,787.04 285.91,788.51 284.02,789.98 282.12,791.45 280.22,792.94 278.31,794.43 276.40,795.94 274.49,797.45 272.58,798.97 270.66,800.49 268.74,802.03 266.82,803.57 264.89,805.12 262.96,806.68 261.02,808.25 259.09,809.83 257.15,811.41 255.20,813.01 253.26,814.61 251.31,816.22 249.35,817.84 247.40,819.47 245.44,821.11 243.48,822.76 241.51,824.41 239.55,826.08 237.57,827.75 235.60,829.43 233.62,831.13 231.64,832.83 229.66,834.54 227.67,836.26 225.68,837.99 223.69,839.72 221.70,841.47 219.70,843.23 217.70,844.99 215.69,846.77 213.69,848.56 211.68,850.35 209.66,852.16 207.65,853.97 205.63,855.79 203.71,857.53" type="driving"/>
    <lane id="-0_1" index="1" disallow="pedestrian tram rail_urban rail rail_electric rail_fast ship" speed="22.22" length="429.21" width="3.75" shape="552.60,609.70 552.47,609.79 551.31,610.59 550.15,611.38 548.98,612.18 547.80,612.97 546.62,613.76 545.44,614.56 544.25,615.35 543.06,616.15 541.86,616.94 540.65,617.74 539.44,618.53 538.23,619.33 537.01,620.12 535.78,620.92 534.55,621.71 533.32,622.51 532.08,623.31 530.83,624.11 529.58,624.91 528.33,625.71 527.07,626.51 525.80,627.31 524.53,628.11 523.26,628.92 521.98,629.72 520.69,630.53 519.40,631.33 518.10,632.14 516.80,632.95 515.50,633.76 514.19,634.57 512.87,635.38 511.55,636.20 510.23,637.01 508.90,637.83 507.57,638.65 506.23,639.47 504.88,640.29 503.53,641.12 502.18,641.94 500.82,642.77 499.46,643.60 498.09,644.43 496.72,645.26 495.34,646.09 493.96,646.93 492.57,647.77 491.18,648.61 489.78,649.45 488.38,650.30 486.98,651.14 485.57,651.99 484.15,652.84 482.73,653.70 481.31,654.55 479.88,655.41 478.44,656.27 477.00,657.14 475.56,658.00 474.11,658.87 472.66,659.74 471.20,660.62 469.74,661.49 468.28,662.37 466.81,663.26 465.33,664.14 463.85,665.03 462.37,665.92 460.88,666.82 459.39,667.72 457.89,668.62 456.39,669.52 454.88,670.43 453.37,671.34 451.86,672.25 450.34,673.17 448.81,674.09 447.28,675.02 445.75,675.94 444.21,676.88 442.67,677.81 441.12,678.75 439.57,679.69 438.02,680.64 436.46,681.59 434.90,682.54 433.33,683.50 431.76,684.46 430.18,685.43 428.60,686.40 427.02,687.37 425.43,688.35 423.83,689.33 422.24,690.32 420.63,691.31 419.03,692.30 417.42,693.30 415.80,694.31 414.19,695.32 412.56,696.33 410.94,697.35 409.31,698.37 407.67,699.39 406.03,700.43 404.39,701.46 402.74,702.50 401.09,703.55 399.43,704.60 397.77,705.65 396.11,706.71 394.44,707.78 392.77,708.85 391.10,709.92 389.42,711.00 387.73,712.09 386.04,713.18 384.35,714.28 382.66,715.38 380.96,716.49 379.25,717.60 377.55,718.72 375.83,719.84 374.12,720.97 372.40,722.10 370.68,723.24 368.95,724.39 367.22,725.54 365.48,726.70 363.75,727.86 362.00,729.03 360.26,730.21 358.51,731.39 356.75,732.58 355.00,733.77 353.23,734.97 351.47,736.17 349.70,737.39 347.93,738.60 346.15,739.83 344.37,741.06 342.59,742.30 340.80,743.54 339.01,744.79 337.21,746.05 335.41,747.31 333.61,748.58 331.81,749.86 330.00,751.14 328.18,752.43 326.37,753.73 324.55,755.03 322.72,756.34 320.90,757.66 319.07,758.98 317.23,760.31 315.39,761.65 313.55,763.00 311.71,764.35 309.86,765.71 308.00,767.08 306.15,768.45 304.29,769.84 302.43,771.23 300.56,772.62 298.69,774.03 296.82,775.44 294.94,776.86 293.06,778.29 291.18,779.72 289.29,781.17 287.40,782.62 285.51,784.07 283.61,785.54 281.71,787.01 279.81,788.50 277.90,789.99 275.99,791.49 274.08,792.99 272.16,794.51 270.24,796.03 268.32,797.56 266.40,799.10 264.47,800.65 262.53,802.20 260.60,803.77 258.66,805.34 256.72,806.92 254.77,808.51 252.82,810.11 250.87,811.72 248.92,813.33 246.96,814.96 245.00,816.59 243.03,818.24 241.06,819.89 239.09,821.55 237.12,823.22 235.14,824.89 233.16,826.58 231.18,828.28 229.20,829.98 227.21,831.70 225.22,833.42 223.22,835.16 221.22,836.90 219.22,838.65 217.22,840.41 215.21,842.19 213.20,843.97 211.19,845.76 209.17,847.56 207.16,849.37 205.14,851.19 203.11,853.01 201.20,854.75" type="driving"/>
    <lane id="-0_2" index="2" disallow="pedestrian tram rail_urban rail rail_electric rail_fast ship" speed="22.22" length="429.21" width="3.75" shape="550.47,606.61 550.34,606.70 549.19,607.49 548.03,608.28 546.87,609.07 545.71,609.86 544.53,610.65 543.35,611.44 542.17,612.23 540.98,613.02 539.79,613.81 538.59,614.60 537.39,615.39 536.18,616.19 534.96,616.98 533.74,617.77 532.52,618.57 531.29,619.36 530.05,620.15 528.81,620.95 527.56,621.75 526.31,622.54 525.06,623.34 523.80,624.14 522.53,624.94 521.26,625.74 519.98,626.55 518.70,627.35 517.41,628.15 516.12,628.96 514.82,629.77 513.52,630.57 512.22,631.38 510.90,632.19 509.59,633.01 508.27,633.82 506.94,634.64 505.61,635.45 504.27,636.27 502.93,637.09 501.58,637.91 500.23,638.74 498.87,639.56 497.51,640.39 496.15,641.22 494.77,642.05 493.40,642.88 492.02,643.72 490.63,644.56 489.24,645.40 487.85,646.24 486.45,647.08 485.04,647.93 483.63,648.78 482.22,649.63 480.80,650.48 479.37,651.34 477.95,652.20 476.51,653.06 475.07,653.92 473.63,654.79 472.18,655.66 470.73,656.53 469.28,657.40 467.81,658.28 466.35,659.16 464.88,660.04 463.40,660.93 461.92,661.82 460.44,662.71 458.95,663.60 457.45,664.50 455.96,665.40 454.45,666.31 452.95,667.22 451.43,668.13 449.92,669.04 448.40,669.96 446.87,670.88 445.34,671.81 443.81,672.74 442.27,673.67 440.73,674.61 439.18,675.55 437.63,676.49 436.07,677.44 434.51,678.39 432.94,679.34 431.37,680.30 429.80,681.26 428.22,682.23 426.64,683.20 425.05,684.18 423.46,685.16 421.86,686.14 420.27,687.13 418.66,688.12 417.05,689.12 415.44,690.12 413.82,691.12 412.20,692.13 410.58,693.15 408.95,694.17 407.31,695.19 405.68,696.22 404.03,697.25 402.39,698.29 400.74,699.33 399.08,700.38 397.42,701.43 395.76,702.49 394.09,703.55 392.42,704.62 390.75,705.69 389.07,706.77 387.38,707.85 385.70,708.94 384.01,710.03 382.31,711.13 380.61,712.24 378.91,713.35 377.20,714.46 375.49,715.58 373.77,716.71 372.06,717.84 370.33,718.98 368.61,720.12 366.87,721.27 365.14,722.42 363.40,723.58 361.66,724.75 359.91,725.92 358.16,727.10 356.41,728.28 354.65,729.47 352.89,730.67 351.12,731.87 349.35,733.08 347.58,734.29 345.80,735.52 344.02,736.74 342.24,737.98 340.45,739.22 338.66,740.46 336.86,741.72 335.06,742.98 333.26,744.24 331.45,745.52 329.64,746.80 327.83,748.08 326.01,749.38 324.19,750.68 322.36,751.98 320.53,753.30 318.70,754.62 316.86,755.95 315.03,757.28 313.18,758.62 311.34,759.97 309.49,761.33 307.63,762.69 305.77,764.06 303.91,765.44 302.05,766.83 300.18,768.22 298.31,769.62 296.44,771.03 294.56,772.45 292.68,773.87 290.79,775.30 288.90,776.74 287.01,778.19 285.12,779.64 283.22,781.11 281.32,782.58 279.41,784.05 277.50,785.54 275.59,787.03 273.68,788.54 271.76,790.05 269.84,791.57 267.91,793.09 265.98,794.63 264.05,796.17 262.12,797.72 260.18,799.28 258.24,800.85 256.29,802.43 254.35,804.02 252.40,805.61 250.44,807.21 248.48,808.83 246.52,810.45 244.56,812.08 242.59,813.71 240.62,815.36 238.65,817.02 236.68,818.68 234.70,820.36 232.71,822.04 230.73,823.73 228.74,825.43 226.75,827.14 224.76,828.86 222.76,830.59 220.76,832.33 218.76,834.08 216.75,835.83 214.74,837.60 212.73,839.38 210.71,841.16 208.69,842.96 206.67,844.76 204.65,846.58 202.62,848.40 200.59,850.24 198.68,851.98" type="driving"/>
  </edge>
  <edge id="-1" from="1.0" to="4" priority="1" type="driving" shape="197.30,850.69 195.15,852.65 193.01,854.60 190.90,856.54 188.82,858.46 186.75,860.37 184.71,862.27 182.69,864.15 180.70,866.02 178.72,867.87 176.77,869.72 174.84,871.55 172.93,873.37 171.04,875.17 169.17,876.96 167.32,878.74 165.49,880.51 163.69,882.27 161.90,884.01 160.14,885.74 158.39,887.46 156.67,889.17 154.96,890.87 153.27,892.55 151.61,894.23 149.96,895.89 148.33,897.54 146.72,899.18 145.13,900.81 143.56,902.42 142.00,904.03 140.47,905.62 138.95,907.21 137.45,908.78 135.97,910.35 134.50,911.90 133.06,913.44 131.63,914.97 130.21,916.49 128.82,918.01 127.44,919.51 126.08,921.00 124.73,922.48 123.40,923.95 122.09,925.41 120.79,926.87 119.51,928.31 118.24,929.75 116.99,931.17 115.75,932.59 114.53,933.99 113.33,935.39 112.14,936.78 110.96,938.16 109.80,939.53 108.65,940.89 107.52,942.25 106.40,943.59 105.29,944.93 104.20,946.26 103.12,947.58 102.05,948.90 101.00,950.20 99.96,951.50 98.93,952.79 97.92,954.07 96.92,955.34 95.93,956.61 94.95,957.87 93.98,959.12 93.03,960.37 92.09,961.61 91.15,962.84 90.24,964.07 89.33,965.28 88.43,966.49 87.54,967.70 86.67,968.90 85.80,970.09 84.94,971.27 84.10,972.45 83.26,973.63 82.44,974.79 81.62,975.96 80.81,977.11 80.02,978.26 79.23,979.40 78.45,980.54 77.68,981.68 76.92,982.80 76.16,983.93 75.42,985.04">
    <lane id="-1_0" index="0" disallow="pedestrian tram rail_urban rail rail_electric rail_fast ship" speed="22.22" length="176.28" width="3.75" shape="203.50,857.73 201.46,859.58 199.35,861.52 197.25,863.44 195.18,865.35 193.13,867.25 191.10,869.13 189.09,871.00 187.11,872.86 185.15,874.70 183.21,876.53 181.29,878.35 179.39,880.15 177.52,881.94 175.67,883.72 173.83,885.49 172.02,887.24 170.23,888.98 168.46,890.71 166.71,892.43 164.98,894.13 163.27,895.83 161.58,897.51 159.91,899.18 158.26,900.84 156.62,902.48 155.01,904.12 153.42,905.74 151.84,907.35 150.29,908.95 148.75,910.54 147.23,912.12 145.73,913.69 144.24,915.24 142.78,916.79 141.33,918.32 139.90,919.85 138.49,921.36 137.09,922.86 135.71,924.36 134.35,925.84 133.01,927.31 131.68,928.77 130.37,930.23 129.07,931.67 127.79,933.10 126.52,934.53 125.28,935.94 124.04,937.35 122.82,938.74 121.62,940.13 120.43,941.50 119.26,942.87 118.10,944.23 116.96,945.58 115.83,946.92 114.71,948.25 113.61,949.58 112.52,950.89 111.45,952.20 110.39,953.50 109.34,954.79 108.31,956.07 107.28,957.35 106.28,958.62 105.28,959.88 104.30,961.13 103.32,962.37 102.36,963.61 101.42,964.84 100.48,966.06 99.56,967.27 98.64,968.48 97.74,969.68 96.85,970.88 95.97,972.06 95.10,973.25 94.24,974.42 93.39,975.59 92.55,976.75 91.73,977.90 90.91,979.05 90.10,980.20 89.30,981.33 88.51,982.47 87.73,983.59 86.96,984.71 86.19,985.83 85.46,986.91" type="driving"/>