<?xml version='1.0' encoding='UTF-8'?>
<!-- generated on 2022-11-12 23:07:23 by Eclipse SUMO netconvert Version 1.13.0
<configuration xmlns:xsi="http://www.w3.org/2001/XMLSchema-instance" xsi:noNamespaceSchemaLocation="http://sumo.dlr.de/xsd/netconvertConfiguration.xsd">

    <input>
        <opendrive-files value="map_v4\9\3331\3331.xodr"/>
    </input>

    <output>
        <output-file value="C:\Users\LinGe\AppData\Local\Temp\tmp3ybm83qn\3331.net.xml"/>
    </output>

    <processing>
        <geometry.max-grade.fix value="false"/>
    </processing>

    <tls_building>
        <tls.left-green.time value="0"/>
    </tls_building>

    <junctions>
        <rectangular-lane-cut value="true"/>
    </junctions>

    <report>
        <aggregate-warnings value="5"/>
    </report>

</configuration>
-->
<net xmlns:xsi="http://www.w3.org/2001/XMLSchema-instance" version="1.9" junctionCornerDetail="5" rectangularLaneCut="true" limitTurnSpeed="5.50" xsi:noNamespaceSchemaLocation="http://sumo.dlr.de/xsd/net_file.xsd">
  <location netOffset="1.56,101.26" convBoundary="0.00,0.00,1102.73,1302.51" origBoundary="-1.56,-101.26,1101.18,1201.26" projParameter="!"/>
  <type id="bidirectional" priority="1" speed="1.39" disallow="pedestrian tram rail_urban rail rail_electric rail_fast ship" width="3.65"/>
  <type id="border" priority="0" speed="1.39" disallow="all" discard="1" width="0.10"/>
  <type id="driving" priority="1" speed="13.89" disallow="pedestrian tram rail_urban rail rail_electric rail_fast ship" width="3.65"/>
  <type id="entry" priority="1" speed="22.22" disallow="pedestrian tram rail_urban rail rail_electric rail_fast ship" width="3.65"/>
  <type id="exit" priority="1" speed="22.22" disallow="pedestrian tram rail_urban rail rail_electric rail_fast ship" width="3.65"/>
  <type id="median" priority="0" speed="1.39" disallow="all" discard="1" width="0.10"/>
  <type id="mwyEntry" priority="1" speed="22.22" allow="private emergency authority army vip passenger hov taxi bus coach delivery truck trailer motorcycle evehicle custom1 custom2" width="3.65"/>
  <type id="mwyExit" priority="1" speed="22.22" allow="private emergency authority army vip passenger hov taxi bus coach delivery truck trailer motorcycle evehicle custom1 custom2" width="3.65"/>
  <type id="none" priority="0" speed="1.39" disallow="all" discard="1" width="1.00"/>
  <type id="offRamp" priority="1" speed="22.22" allow="private emergency authority army vip passenger hov taxi bus coach delivery truck trailer motorcycle evehicle custom1 custom2" width="3.65"/>
  <type id="onRamp" priority="1" speed="22.22" allow="private emergency authority army vip passenger hov taxi bus coach delivery truck trailer motorcycle evehicle custom1 custom2" width="3.65"/>
  <type id="parking" priority="1" speed="1.39" disallow="pedestrian tram rail_urban rail rail_electric rail_fast ship" width="2.50"/>
  <type id="rail" priority="3" speed="33.33" allow="rail_urban rail rail_electric rail_fast" width="3.65"/>
  <type id="restricted" priority="0" speed="13.89" disallow="all" width="3.65"/>
  <type id="roadWorks" priority="0" speed="1.39" allow="authority" width="3.65"/>
  <type id="shoulder" priority="0" speed="1.39" disallow="all" discard="1" width="1.00"/>
  <type id="special1" priority="1" speed="22.22" allow="custom1" discard="1" width="3.65"/>
  <type id="special2" priority="1" speed="22.22" allow="custom2" discard="1" width="3.65"/>
  <type id="special3" priority="1" speed="22.22" allow="custom1 custom2" discard="1" width="3.65"/>
  <type id="stop" priority="1" speed="13.89" disallow="pedestrian tram rail_urban rail rail_electric rail_fast ship" width="3.65"/>
  <type id="tram" priority="2" speed="13.89" allow="tram" width="3.65"/>
  <edge id=":0_0" function="internal">
    <lane id=":0_0_0" index="0" disallow="pedestrian tram rail_urban rail rail_electric rail_fast ship" speed="16.67" length="27.82" width="3.75" shape="962.38,297.36 954.52,302.60,0.02 948.62,307.58,0.04 944.40,312.00,0.05 941.63,315.60,0.06"/>
  </edge>
  <edge id=":0_1" function="internal">
    <lane id=":0_1_0" index="0" disallow="pedestrian tram rail_urban rail rail_electric rail_fast ship" speed="22.22" length="28.19" width="3.75" shape="962.38,297.36 938.13,311.73"/>
    <lane id=":0_1_1" index="1" disallow="pedestrian tram rail_urban rail rail_electric rail_fast ship" speed="22.22" length="28.19" width="3.75" shape="960.47,294.13 936.22,308.51"/>
    <lane id=":0_1_2" index="2" disallow="pedestrian tram rail_urban rail rail_electric rail_fast ship" speed="22.22" length="28.19" width="3.75" shape="958.56,290.91 934.30,305.28"/>
  </edge>
  <edge id=":1_0" function="internal">
    <lane id=":1_0_0" index="0" disallow="pedestrian tram rail_urban rail rail_electric rail_fast ship" speed="16.67" length="24.93" width="3.75" shape="506.89,549.54 513.62,544.56 518.55,539.86 521.94,535.58 524.06,531.86"/>
  </edge>
  <edge id=":1_1" function="internal">
    <lane id=":1_1_0" index="0" disallow="pedestrian tram rail_urban rail rail_electric rail_fast ship" speed="22.22" length="25.58" width="3.75" shape="506.89,549.54 528.33,535.56"/>
    <lane id=":1_1_1" index="1" disallow="pedestrian tram rail_urban rail rail_electric rail_fast ship" speed="22.22" length="25.58" width="3.75" shape="508.95,552.68 530.37,538.70"/>
    <lane id=":1_1_2" index="2" disallow="pedestrian tram rail_urban rail rail_electric rail_fast ship" speed="22.22" length="25.58" width="3.75" shape="511.01,555.81 532.41,541.85"/>
  </edge>
  <edge id=":11.10_0" function="internal">
    <lane id=":11.10_0_0" index="0" disallow="pedestrian tram rail_urban rail rail_electric rail_fast ship" speed="22.22" length="0.30" width="3.75" shape="440.11,609.52,20.00 440.30,609.75,20.00"/>
    <lane id=":11.10_0_1" index="1" disallow="pedestrian tram rail_urban rail rail_electric rail_fast ship" speed="22.22" length="0.30" width="3.75" shape="437.19,611.88,20.00 437.38,612.11,20.00"/>
    <lane id=":11.10_0_2" index="2" disallow="pedestrian tram rail_urban rail rail_electric rail_fast ship" speed="22.22" length="0.30" width="3.75" shape="434.27,614.23,20.00 434.46,614.47,20.00"/>
  </edge>
  <edge id=":15.14_0" function="internal">
    <lane id=":15.14_0_0" index="0" disallow="pedestrian tram rail_urban rail rail_electric rail_fast ship" speed="22.22" length="0.30" width="3.75" shape="422.60,624.05,20.00 422.41,623.81,20.00"/>
    <lane id=":15.14_0_1" index="1" disallow="pedestrian tram rail_urban rail rail_electric rail_fast ship" speed="22.22" length="0.30" width="3.75" shape="425.52,621.69,20.00 425.33,621.46,20.00"/>
    <lane id=":15.14_0_2" index="2" disallow="pedestrian tram rail_urban rail rail_electric rail_fast ship" speed="22.22" length="0.30" width="3.75" shape="428.43,619.33,20.00 428.25,619.10,20.00"/>
  </edge>
  <edge id=":17.16_0" function="internal">
    <lane id=":17.16_0_0" index="0" disallow="pedestrian tram rail_urban rail rail_electric rail_fast ship" speed="11.11" length="0.29" width="3.75" shape="540.01,95.46,10.12 540.29,95.51,10.12"/>
  </edge>
  <edge id=":19.18_0" function="internal">
    <lane id=":19.18_0_0" index="0" disallow="pedestrian tram rail_urban rail rail_electric rail_fast ship" speed="11.11" length="0.30" width="3.75" shape="934.51,624.42,7.63 934.49,624.71,7.64"/>
  </edge>
  <edge id=":2_0" function="internal">
    <lane id=":2_0_0" index="0" disallow="pedestrian tram rail_urban rail rail_electric rail_fast ship" speed="16.67" length="29.61" width="3.75" shape="77.07,92.55,20.00 83.12,100.64,19.98 88.75,106.74,19.97 93.63,111.06,19.96 97.41,113.83,19.96"/>
  </edge>
  <edge id=":2_1" function="internal">
    <lane id=":2_1_0" index="0" disallow="pedestrian tram rail_urban rail rail_electric rail_fast ship" speed="22.22" length="29.99" width="3.75" shape="77.07,92.55,20.00 93.79,117.45,20.00"/>
    <lane id=":2_1_1" index="1" disallow="pedestrian tram rail_urban rail rail_electric rail_fast ship" speed="22.22" length="29.99" width="3.75" shape="73.96,94.64,20.00 90.68,119.54,20.00"/>
    <lane id=":2_1_2" index="2" disallow="pedestrian tram rail_urban rail rail_electric rail_fast ship" speed="22.22" length="29.99" width="3.75" shape="70.85,96.73,20.00 87.56,121.63,20.00"/>
  </edge>
  <edge id=":21.20_0" function="internal">
    <lane id=":21.20_0_0" index="0" disallow="pedestrian tram rail_urban rail rail_electric rail_fast ship" speed="11.11" length="0.26" width="3.75" shape="453.48,463.89,10.14 453.22,463.90,10.17"/>
  </edge>
  <edge id=":23.22_0" function="internal">
    <lane id=":23.22_0_0" index="0" disallow="pedestrian tram rail_urban rail rail_electric rail_fast ship" speed="8.33" length="0.27" width="3.75" shape="572.06,663.75,10.97 572.15,663.50,10.93"/>
  </edge>
  <edge id=":3_0" function="internal">
    <lane id=":3_0_0" index="0" disallow="pedestrian tram rail_urban rail rail_electric rail_fast ship" speed="15.28" length="41.14" width="3.75" shape="480.12,657.40,20.00 488.36,666.17,20.00 497.32,674.56,20.00 505.23,681.31,20.00 510.36,685.18,20.00"/>
  </edge>
  <edge id=":3_1" function="internal">
    <lane id=":3_1_0" index="0" disallow="pedestrian tram rail_urban rail rail_electric rail_fast ship" speed="22.22" length="41.43" width="3.75" shape="480.12,657.40,20.00 507.18,688.72,20.00"/>
    <lane id=":3_1_1" index="1" disallow="pedestrian tram rail_urban rail rail_electric rail_fast ship" speed="22.22" length="41.43" width="3.75" shape="477.27,659.84,20.00 504.36,691.19,20.00"/>
    <lane id=":3_1_2" index="2" disallow="pedestrian tram rail_urban rail rail_electric rail_fast ship" speed="22.22" length="41.43" width="3.75" shape="474.42,662.28,20.00 501.53,693.65,20.00"/>
  </edge>
  <edge id=":3.2_0" function="internal">
    <lane id=":3.2_0_0" index="0" disallow="pedestrian tram rail_urban rail rail_electric rail_fast ship" speed="22.22" length="0.30" width="3.75" shape="437.96,624.31 437.72,624.49"/>
    <lane id=":3.2_0_1" index="1" disallow="pedestrian tram rail_urban rail rail_electric rail_fast ship" speed="22.22" length="0.30" width="3.75" shape="435.75,621.28 435.51,621.46"/>
    <lane id=":3.2_0_2" index="2" disallow="pedestrian tram rail_urban rail rail_electric rail_fast ship" speed="22.22" length="0.30" width="3.75" shape="433.55,618.25 433.30,618.43"/>
  </edge>
  <edge id=":4_0" function="internal">
    <lane id=":4_0_0" index="0" disallow="pedestrian tram rail_urban rail rail_electric rail_fast ship" speed="16.67" length="39.30" width="3.75" shape="941.43,277.53,0.08 947.29,275.66,0.07 956.42,272.18,0.05 967.06,267.49,0.02 977.46,262.02"/>
  </edge>
  <edge id=":4_1" function="internal">
    <lane id=":4_1_0" index="0" disallow="pedestrian tram rail_urban rail rail_electric rail_fast ship" speed="22.22" length="38.57" width="3.75" shape="944.27,281.67 977.46,262.02"/>
    <lane id=":4_1_1" index="1" disallow="pedestrian tram rail_urban rail rail_electric rail_fast ship" speed="22.22" length="38.57" width="3.75" shape="946.18,284.90 979.37,265.25"/>
    <lane id=":4_1_2" index="2" disallow="pedestrian tram rail_urban rail rail_electric rail_fast ship" speed="22.22" length="38.57" width="3.75" shape="948.09,288.12 981.28,268.47"/>
  </edge>
  <edge id=":5_0" function="internal">
    <lane id=":5_0_0" index="0" disallow="pedestrian tram rail_urban rail rail_electric rail_fast ship" speed="16.67" length="52.62" width="3.75" shape="892.04,1105.43,19.86 896.75,1112.17,19.88 905.33,1123.67,19.92 915.33,1136.44,19.96 924.30,1146.97,20.00"/>
  </edge>
  <edge id=":5_1" function="internal">
    <lane id=":5_1_0" index="0" disallow="pedestrian tram rail_urban rail rail_electric rail_fast ship" speed="22.22" length="52.13" width="3.75" shape="888.88,1108.74,20.00 924.30,1146.97,20.00"/>
    <lane id=":5_1_1" index="1" disallow="pedestrian tram rail_urban rail rail_electric rail_fast ship" speed="22.22" length="52.13" width="3.75" shape="886.12,1111.29,20.00 921.55,1149.52,20.00"/>
    <lane id=":5_1_2" index="2" disallow="pedestrian tram rail_urban rail rail_electric rail_fast ship" speed="22.22" length="52.13" width="3.75" shape="883.37,1113.84,20.00 918.80,1152.07,20.00"/>
  </edge>
  <edge id=":5.4_0" function="internal">
    <lane id=":5.4_0_0" index="0" disallow="pedestrian tram rail_urban rail rail_electric rail_fast ship" speed="22.22" length="0.30" width="3.75" shape="424.33,606.09 424.58,605.91"/>
    <lane id=":5.4_0_1" index="1" disallow="pedestrian tram rail_urban rail rail_electric rail_fast ship" speed="22.22" length="0.30" width="3.75" shape="426.54,609.12 426.78,608.95"/>
    <lane id=":5.4_0_2" index="2" disallow="pedestrian tram rail_urban rail rail_electric rail_fast ship" speed="22.22" length="0.30" width="3.75" shape="428.75,612.15 428.99,611.98"/>
  </edge>
  <edge id=":6_0" function="internal">
    <lane id=":6_0_0" index="0" disallow="pedestrian tram rail_urban rail rail_electric rail_fast ship" speed="16.67" length="29.93" width="3.75" shape="385.76,528.82,20.00 386.77,533.44,20.00 388.97,539.66,20.00 392.71,547.18,20.00 398.34,555.69,20.00"/>
  </edge>
  <edge id=":6_1" function="internal">
    <lane id=":6_1_0" index="0" disallow="pedestrian tram rail_urban rail rail_electric rail_fast ship" speed="22.22" length="28.72" width="3.75" shape="381.19,532.68,20.00 398.34,555.69,20.00"/>
    <lane id=":6_1_1" index="1" disallow="pedestrian tram rail_urban rail rail_electric rail_fast ship" speed="22.22" length="28.72" width="3.75" shape="378.18,534.91,20.00 395.34,557.94,20.00"/>
    <lane id=":6_1_2" index="2" disallow="pedestrian tram rail_urban rail rail_electric rail_fast ship" speed="22.22" length="28.72" width="3.75" shape="375.16,537.14,20.00 392.34,560.19,20.00"/>
  </edge>
  <edge id=":7_0" function="internal">
    <lane id=":7_0_0" index="0" disallow="pedestrian tram rail_urban rail rail_electric rail_fast ship" speed="15.28" length="27.44" width="3.75" shape="536.92,565.09 532.41,565.23 526.49,566.52 519.40,569.28 511.35,573.85"/>
  </edge>
  <edge id=":7_1" function="internal">
    <lane id=":7_1_0" index="0" disallow="pedestrian tram rail_urban rail rail_electric rail_fast ship" speed="22.22" length="25.91" width="3.75" shape="532.99,559.65 511.35,573.85"/>
    <lane id=":7_1_1" index="1" disallow="pedestrian tram rail_urban rail rail_electric rail_fast ship" speed="22.22" length="25.91" width="3.75" shape="530.94,556.51 509.28,570.72"/>
    <lane id=":7_1_2" index="2" disallow="pedestrian tram rail_urban rail rail_electric rail_fast ship" speed="22.22" length="25.91" width="3.75" shape="528.90,553.37 507.21,567.59"/>
  </edge>
  <edge id="-0" from="0.begin" to="0" priority="1" type="driving" shape="1102.73,202.87 1101.85,203.42 1100.95,203.97 1100.03,204.54 1099.08,205.12 1098.11,205.71 1097.11,206.32 1096.10,206.94 1095.06,207.57 1094.00,208.22 1092.92,208.88 1091.81,209.55 1090.68,210.23 1089.53,210.92 1088.36,211.63 1087.17,212.35 1085.96,213.08 1084.72,213.83 1083.47,214.58 1082.19,215.35 1080.90,216.13 1079.58,216.92 1078.24,217.72 1076.88,218.54 1075.50,219.36 1074.11,220.20 1072.69,221.05 1071.25,221.91 1069.79,222.78 1068.31,223.66 1066.82,224.55 1065.30,225.46 1063.77,226.37 1062.21,227.30 1060.64,228.24 1059.05,229.18 1057.44,230.14 1055.81,231.11 1054.17,232.09 1052.50,233.08 1050.82,234.08 1049.12,235.09 1047.40,236.11 1045.67,237.14 1043.91,238.18 1042.14,239.23 1040.36,240.29 1038.55,241.36 1036.73,242.44 1034.90,243.53 1033.04,244.63 1031.17,245.74 1029.29,246.85 1027.38,247.98 1025.47,249.12 1023.53,250.26 1021.58,251.42 1019.62,252.58 1017.64,253.76 1015.64,254.94 1013.63,256.13 1011.60,257.33 1009.56,258.54 1007.51,259.75 1005.44,260.98 1003.35,262.21 1001.25,263.45 999.14,264.71 997.01,265.96 994.87,267.23 992.72,268.51 990.55,269.79 988.37,271.08 986.18,272.38 983.97,273.68 981.75,275.00 979.52,276.32 977.27,277.65 975.01,278.99 972.74,280.33 970.46,281.68 968.16,283.04 965.85,284.41 963.53,285.78 961.20,287.16 958.86,288.55 956.51,289.94 954.14,291.34">
    <lane id="-0_0" index="0" disallow="pedestrian tram rail_urban rail rail_electric rail_fast ship" speed="22.22" length="169.01" width="3.75" shape="1107.65,210.85 1106.77,211.40 1105.86,211.96 1104.93,212.53 1103.97,213.12 1103.00,213.71 1102.00,214.32 1100.98,214.95 1099.93,215.58 1098.87,216.23 1097.78,216.89 1096.67,217.56 1095.54,218.25 1094.38,218.95 1093.21,219.66 1092.02,220.38 1090.80,221.11 1089.56,221.86 1088.30,222.61 1087.02,223.38 1085.72,224.16 1084.40,224.96 1083.06,225.76 1081.70,226.58 1080.32,227.40 1078.92,228.24 1077.50,229.09 1076.06,229.95 1074.60,230.83 1073.12,231.71 1071.62,232.60 1070.10,233.51 1068.57,234.43 1067.01,235.35 1065.44,236.29 1063.85,237.24 1062.23,238.20 1060.61,239.17 1058.96,240.15 1057.29,241.14 1055.61,242.14 1053.91,243.15 1052.19,244.17 1050.45,245.20 1048.70,246.24 1046.93,247.29 1045.14,248.35 1043.34,249.42 1041.52,250.50 1039.68,251.59 1037.82,252.69 1035.95,253.80 1034.07,254.92 1032.16,256.05 1030.24,257.18 1028.31,258.33 1026.36,259.49 1024.39,260.65 1022.41,261.82 1020.42,263.01 1018.41,264.20 1016.38,265.40 1014.34,266.60 1012.28,267.82 1010.21,269.05 1008.13,270.28 1006.03,271.52 1003.92,272.77 1001.79,274.03 999.65,275.30 997.50,276.57 995.33,277.86 993.15,279.15 990.95,280.45 988.74,281.75 986.52,283.07 984.29,284.39 982.04,285.72 979.79,287.05 977.51,288.40 975.23,289.75 972.94,291.11 970.63,292.48 968.31,293.85 965.98,295.23 963.64,296.62 962.38,297.36" type="driving"/>
    <lane id="-0_1" index="1" disallow="pedestrian tram rail_urban rail rail_electric rail_fast ship" speed="22.22" length="169.01" width="3.75" shape="1105.69,207.66 1104.80,208.21 1103.90,208.76 1102.97,209.33 1102.02,209.92 1101.04,210.51 1100.04,211.12 1099.02,211.74 1097.98,212.38 1096.92,213.03 1095.83,213.69 1094.73,214.36 1093.60,215.04 1092.44,215.74 1091.27,216.45 1090.08,217.17 1088.86,217.90 1087.63,218.64 1086.37,219.40 1085.09,220.17 1083.79,220.95 1082.47,221.74 1081.13,222.55 1079.77,223.36 1078.39,224.19 1076.99,225.02 1075.57,225.87 1074.14,226.73 1072.68,227.61 1071.20,228.49 1069.70,229.38 1068.18,230.29 1066.65,231.20 1065.09,232.13 1063.52,233.07 1061.93,234.02 1060.32,234.97 1058.69,235.94 1057.04,236.92 1055.38,237.91 1053.69,238.91 1051.99,239.92 1050.27,240.94 1048.54,241.98 1046.79,243.02 1045.02,244.07 1043.23,245.13 1041.42,246.20 1039.60,247.28 1037.77,248.37 1035.91,249.47 1034.04,250.58 1032.15,251.69 1030.25,252.82 1028.33,253.96 1026.40,255.10 1024.45,256.26 1022.48,257.42 1020.50,258.60 1018.51,259.78 1016.50,260.97 1014.47,262.17 1012.43,263.38 1010.37,264.59 1008.30,265.82 1006.22,267.05 1004.12,268.30 1002.01,269.55 999.88,270.80 997.74,272.07 995.59,273.35 993.42,274.63 991.24,275.92 989.04,277.22 986.83,278.53 984.61,279.84 982.38,281.16 980.13,282.49 977.88,283.83 975.60,285.17 973.32,286.52 971.03,287.88 968.72,289.25 966.40,290.62 964.07,292.00 961.73,293.39 960.47,294.13" type="driving"/>
    <lane id="-0_2" index="2" disallow="pedestrian tram rail_urban rail rail_electric rail_fast ship" speed="22.22" length="169.01" width="3.75" shape="1103.72,204.47 1102.84,205.01 1101.93,205.57 1101.01,206.14 1100.06,206.72 1099.09,207.31 1098.09,207.92 1097.07,208.54 1096.03,209.18 1094.97,209.82 1093.89,210.48 1092.78,211.15 1091.65,211.83 1090.50,212.53 1089.33,213.24 1088.14,213.96 1086.93,214.69 1085.69,215.43 1084.44,216.19 1083.16,216.96 1081.86,217.73 1080.54,218.53 1079.21,219.33 1077.85,220.14 1076.47,220.97 1075.07,221.81 1073.65,222.66 1072.21,223.52 1070.75,224.39 1069.28,225.27 1067.78,226.16 1066.26,227.07 1064.73,227.98 1063.17,228.91 1061.60,229.85 1060.01,230.79 1058.40,231.75 1056.77,232.72 1055.12,233.70 1053.46,234.69 1051.78,235.69 1050.08,236.70 1048.36,237.72 1046.62,238.75 1044.87,239.79 1043.10,240.84 1041.31,241.90 1039.51,242.97 1037.69,244.05 1035.85,245.14 1034.00,246.24 1032.13,247.35 1030.24,248.47 1028.34,249.60 1026.42,250.73 1024.49,251.88 1022.54,253.03 1020.57,254.20 1018.59,255.37 1016.60,256.55 1014.58,257.74 1012.56,258.94 1010.52,260.15 1008.46,261.37 1006.39,262.59 1004.31,263.83 1002.21,265.07 1000.10,266.32 997.97,267.58 995.83,268.84 993.68,270.12 991.51,271.40 989.33,272.69 987.13,273.99 984.92,275.30 982.70,276.61 980.47,277.93 978.22,279.26 975.97,280.60 973.69,281.95 971.41,283.30 969.12,284.66 966.81,286.02 964.49,287.40 962.16,288.78 959.82,290.16 958.56,290.91" type="driving"/>
  </edge>
  <edge id="-1" from="0" to="7" priority="1" type="driving" shape="954.14,291.34 952.61,292.25 951.08,293.16 949.54,294.07 947.99,294.99 946.44,295.90 944.89,296.82 943.33,297.75 941.77,298.67 940.21,299.60 938.64,300.53 937.06,301.47 935.48,302.40 933.90,303.34 932.31,304.28 930.72,305.22 929.13,306.17 927.53,307.12 925.93,308.07 924.32,309.02 922.71,309.98 921.09,310.94 919.47,311.90 917.85,312.86 916.23,313.83 914.60,314.79 912.96,315.76 911.32,316.74 909.68,317.71 908.04,318.69 906.39,319.67 904.74,320.65 903.08,321.63 901.43,322.62 899.76,323.60 898.10,324.59 896.43,325.59 894.76,326.58 893.08,327.58 891.41,328.57 889.72,329.57 888.04,330.58 886.35,331.58 884.66,332.59 882.97,333.59 881.27,334.60 879.57,335.61 877.87,336.63 876.16,337.64 874.46,338.66 872.75,339.68 871.03,340.70 869.32,341.72 867.60,342.75 865.88,343.78 864.15,344.80 862.42,345.83 860.70,346.86 858.96,347.90 857.23,348.93 855.49,349.97 853.75,351.01 852.01,352.05 850.27,353.09 848.52,354.13 846.78,355.17 845.03,356.22 843.27,357.27 841.52,358.32 839.76,359.37 838.00,360.42 836.24,361.47 834.48,362.52 832.72,363.58 830.95,364.64 829.18,365.69 827.41,366.75 825.64,367.82 823.87,368.88 822.09,369.94 820.32,371.01 818.54,372.07 816.76,373.14 814.98,374.21 813.19,375.28 811.41,376.35 809.62,377.42 807.84,378.49 806.05,379.56 804.26,380.64 802.47,381.71 800.68,382.79 798.88,383.87 797.09,384.95 795.29,386.03 793.49,387.11 791.70,388.19 789.90,389.27 788.10,390.35 786.30,391.44 784.50,392.52 782.69,393.61 780.89,394.70 779.09,395.78 777.28,396.87 775.48,397.96 773.67,399.05 771.86,400.14 770.06,401.23 768.25,402.32 766.44,403.41 764.63,404.51 762.82,405.60 761.01,406.69 759.20,407.79 757.39,408.88 755.58,409.98 753.77,411.07 751.96,412.17 750.15,413.27 748.33,414.36 746.52,415.46 744.71,416.56 742.90,417.66 741.09,418.76 739.28,419.86 737.46,420.95 735.65,422.05 733.84,423.15 732.03,424.25 730.22,425.35 728.41,426.46 726.60,427.56 724.79,428.66 722.98,429.76 721.17,430.86 719.36,431.96 717.55,433.06 715.75,434.16 713.94,435.26 712.13,436.37 710.33,437.47 708.52,438.57 706.72,439.67 704.91,440.77 703.11,441.87 701.31,442.97 699.51,444.08 697.71,445.18 695.91,446.28 694.11,447.38 692.31,448.48 690.52,449.58 688.72,450.68 686.93,451.78 685.14,452.88 683.34,453.98 681.55,455.08 679.77,456.17 677.98,457.27 676.19,458.37 674.41,459.47 672.62,460.57 670.84,461.66 669.06,462.76 667.28,463.85 665.51,464.95 663.73,466.04 661.96,467.14 660.19,468.23 658.42,469.32 656.65,470.42 654.88,471.51 653.12,472.60 651.35,473.69 649.59,474.78 647.83,475.87 646.08,476.96 644.32,478.05 642.57,479.13 640.82,480.22 639.07,481.30 637.32,482.39 635.58,483.47 633.84,484.56 632.10,485.64 630.36,486.72 628.62,487.80 626.89,488.88 625.16,489.96 623.44,491.03 621.71,492.11 619.99,493.19 618.27,494.26 616.55,495.33 614.84,496.41 613.13,497.48 611.42,498.55 609.71,499.62 608.01,500.68 606.31,501.75 604.61,502.81 602.92,503.88 601.23,504.94 599.54,506.00 597.85,507.06 596.17,508.12 594.49,509.18 592.82,510.24 591.14,511.29 589.47,512.35 587.81,513.40 586.14,514.45 584.49,515.50 582.83,516.55 581.18,517.59 579.53,518.64 577.88,519.68 576.24,520.72 574.60,521.76 572.97,522.80 571.34,523.84 569.71,524.88 568.09,525.91 566.47,526.94 564.85,527.97 563.24,529.00 561.63,530.03 560.03,531.06 558.43,532.08 556.83,533.10 555.24,534.12 553.65,535.14 552.07,536.16 550.49,537.17 548.91,538.19 547.34,539.20 545.77,540.21 544.21,541.21 542.65,542.22 541.10,543.22 539.55,544.22 538.00,545.22 536.46,546.22 534.93,547.21 533.40,548.21 531.87,549.20 530.35,550.19 528.83,551.17 527.32,552.16 525.81,553.14 524.31,554.12 522.81,555.10 521.32,556.08 519.83,557.05 518.34,558.02 516.87,558.99 515.39,559.96 513.92,560.92 512.46,561.88 511.00,562.84 509.55,563.80">
    <lane id="-1_0" index="0" disallow="pedestrian tram rail_urban rail rail_electric rail_fast ship" speed="22.22" length="475.17" width="3.75" shape="938.13,311.73 937.10,312.34 935.50,313.29 933.91,314.23 932.31,315.18 930.71,316.13 929.10,317.09 927.49,318.04 925.88,319.00 924.26,319.96 922.64,320.92 921.01,321.89 919.38,322.85 917.75,323.82 916.11,324.80 914.47,325.77 912.83,326.75 911.18,327.73 909.53,328.71 907.87,329.69 906.22,330.68 904.55,331.66 902.89,332.65 901.22,333.64 899.55,334.64 897.88,335.63 896.20,336.63 894.52,337.63 892.83,338.63 891.15,339.64 889.46,340.64 887.76,341.65 886.07,342.66 884.37,343.67 882.67,344.68 880.96,345.70 879.25,346.72 877.54,347.73 875.83,348.76 874.12,349.78 872.40,350.80 870.68,351.83 868.95,352.86 867.23,353.88 865.50,354.92 863.77,355.95 862.03,356.98 860.30,358.02 858.56,359.06 856.82,360.10 855.08,361.14 853.33,362.18 851.58,363.22 849.83,364.27 848.08,365.31 846.33,366.36 844.57,367.41 842.82,368.46 841.06,369.52 839.29,370.57 837.53,371.62 835.77,372.68 834.00,373.74 832.23,374.80 830.46,375.86 828.69,376.92 826.91,377.98 825.14,379.05 823.36,380.11 821.58,381.18 819.80,382.25 818.02,383.32 816.23,384.39 814.45,385.46 812.66,386.53 810.87,387.60 809.09,388.68 807.30,389.75 805.50,390.83 803.71,391.90 801.92,392.98 800.12,394.06 798.33,395.14 796.53,396.22 794.73,397.30 792.93,398.39 791.13,399.47 789.33,400.55 787.53,401.64 785.73,402.73 783.93,403.81 782.12,404.90 780.32,405.99 778.51,407.08 776.71,408.17 774.90,409.26 773.09,410.35 771.29,411.44 769.48,412.53 767.67,413.62 765.86,414.72 764.05,415.81 762.24,416.90 760.43,418.00 758.62,419.09 756.81,420.19 755.00,421.29 753.19,422.38 751.38,423.48 749.57,424.58 747.76,425.67 745.95,426.77 744.14,427.87 742.33,428.97 740.52,430.07 738.71,431.17 736.90,432.27 735.09,433.37 733.28,434.47 731.47,435.57 729.66,436.67 727.85,437.77 726.04,438.87 724.24,439.97 722.43,441.07 720.62,442.17 718.82,443.27 717.01,444.37 715.21,445.47 713.41,446.57 711.60,447.67 709.80,448.77 708.00,449.87 706.20,450.97 704.40,452.07 702.60,453.17 700.80,454.27 699.01,455.37 697.21,456.47 695.42,457.57 693.62,458.67 691.83,459.77 690.04,460.87 688.25,461.97 686.46,463.07 684.67,464.16 682.89,465.26 681.10,466.36 679.32,467.45 677.54,468.55 675.76,469.65 673.98,470.74 672.20,471.84 670.43,472.93 668.65,474.02 666.88,475.12 665.11,476.21 663.34,477.30 661.57,478.39 659.81,479.48 658.05,480.57 656.29,481.66 654.53,482.75 652.77,483.84 651.01,484.93 649.26,486.01 647.51,487.10 645.76,488.18 644.01,489.27 642.27,490.35 640.53,491.43 638.79,492.52 637.05,493.60 635.31,494.68 633.58,495.76 631.85,496.83 630.12,497.91 628.40,498.99 626.68,500.06 624.95,501.14 623.24,502.21 621.52,503.28 619.81,504.35 618.10,505.42 616.39,506.49 614.69,507.56 612.99,508.63 611.29,509.69 609.60,510.75 607.90,511.82 606.22,512.88 604.53,513.94 602.85,515.00 601.17,516.06 599.49,517.11 597.82,518.17 596.15,519.22 594.48,520.27 592.82,521.32 591.16,522.37 589.50,523.42 587.84,524.47 586.19,525.51 584.55,526.56 582.91,527.60 581.27,528.64 579.63,529.68 578.00,530.71 576.37,531.75 574.75,532.78 573.12,533.82 571.51,534.85 569.89,535.88 568.29,536.90 566.68,537.93 565.08,538.95 563.48,539.98 561.89,541.00 560.30,542.01 558.71,543.03 557.13,544.05 555.56,545.06 553.98,546.07 552.42,547.08 550.85,548.09 549.29,549.09 547.74,550.09 546.19,551.10 544.64,552.10 543.10,553.09 541.56,554.09 540.03,555.08 538.50,556.07 536.98,557.06 535.46,558.05 533.94,559.03 532.99,559.65" type="driving"/>