<?xml version='1.0' encoding='UTF-8'?>
<!-- generated on 2022-09-25 13:30:05 by Eclipse SUMO netconvert Version 1.13.0
<configuration xmlns:xsi="http://www.w3.org/2001/XMLSchema-instance" xsi:noNamespaceSchemaLocation="http://sumo.dlr.de/xsd/netconvertConfiguration.xsd">

    <input>
        <opendrive-files value="map_new_new\17\37\37.xodr"/>
    </input>

    <output>
        <output-file value="C:\Users\LinGe\AppData\Local\Temp\tmpry3f1th9\37.net.xml"/>
    </output>

    <processing>
        <geometry.max-grade.fix value="false"/>
    </processing>

    <tls_building>
        <tls.left-green.time value="0"/>
    </tls_building>

    <junctions>
        <rectangular-lane-cut value="true"/>
    </junctions>

    <report>
        <aggregate-warnings value="5"/>
    </report>

</configuration>
-->
<net xmlns:xsi="http://www.w3.org/2001/XMLSchema-instance" version="1.9" junctionCornerDetail="5" rectangularLaneCut="true" limitTurnSpeed="5.50" xsi:noNamespaceSchemaLocation="http://sumo.dlr.de/xsd/net_file.xsd">
  <location netOffset="143.03,101.26" convBoundary="0.00,0.00,1244.20,1302.51" origBoundary="-143.03,-101.26,1101.18,1201.26" projParameter="!"/>
  <type id="bidirectional" priority="1" speed="1.39" disallow="pedestrian tram rail_urban rail rail_electric rail_fast ship" width="3.65"/>
  <type id="border" priority="0" speed="1.39" disallow="all" discard="1" width="0.10"/>
  <type id="driving" priority="1" speed="13.89" disallow="pedestrian tram rail_urban rail rail_electric rail_fast ship" width="3.65"/>
  <type id="entry" priority="1" speed="22.22" disallow="pedestrian tram rail_urban rail rail_electric rail_fast ship" width="3.65"/>
  <type id="exit" priority="1" speed="22.22" disallow="pedestrian tram rail_urban rail rail_electric rail_fast ship" width="3.65"/>
  <type id="median" priority="0" speed="1.39" disallow="all" discard="1" width="0.10"/>
  <type id="mwyEntry" priority="1" speed="22.22" allow="private emergency authority army vip passenger hov taxi bus coach delivery truck trailer motorcycle evehicle custom1 custom2" width="3.65"/>
  <type id="mwyExit" priority="1" speed="22.22" allow="private emergency authority army vip passenger hov taxi bus coach delivery truck trailer motorcycle evehicle custom1 custom2" width="3.65"/>
  <type id="none" priority="0" speed="1.39" disallow="all" discard="1" width="1.00"/>
  <type id="offRamp" priority="1" speed="22.22" allow="private emergency authority army vip passenger hov taxi bus coach delivery truck trailer motorcycle evehicle custom1 custom2" width="3.65"/>
  <type id="onRamp" priority="1" speed="22.22" allow="private emergency authority army vip passenger hov taxi bus coach delivery truck trailer motorcycle evehicle custom1 custom2" width="3.65"/>
  <type id="parking" priority="1" speed="1.39" disallow="pedestrian tram rail_urban rail rail_electric rail_fast ship" width="2.50"/>
  <type id="rail" priority="3" speed="33.33" allow="rail_urban rail rail_electric rail_fast" width="3.65"/>
  <type id="restricted" priority="0" speed="13.89" disallow="all" width="3.65"/>
  <type id="roadWorks" priority="0" speed="1.39" allow="authority" width="3.65"/>
  <type id="shoulder" priority="0" speed="1.39" disallow="all" discard="1" width="1.00"/>
  <type id="special1" priority="1" speed="22.22" allow="custom1" discard="1" width="3.65"/>
  <type id="special2" priority="1" speed="22.22" allow="custom2" discard="1" width="3.65"/>
  <type id="special3" priority="1" speed="22.22" allow="custom1 custom2" discard="1" width="3.65"/>
  <type id="stop" priority="1" speed="13.89" disallow="pedestrian tram rail_urban rail rail_electric rail_fast ship" width="3.65"/>
  <type id="tram" priority="2" speed="13.89" allow="tram" width="3.65"/>
  <edge id=":0_0" function="internal">
    <lane id=":0_0_0" index="0" disallow="pedestrian tram rail_urban rail rail_electric rail_fast ship" speed="20.83" length="108.49" width="3.75" shape="1168.93,257.13 1076.69,314.24"/>
  </edge>
  <edge id=":0_1" function="internal">
    <lane id=":0_1_0" index="0" disallow="pedestrian tram rail_urban rail rail_electric rail_fast ship" speed="22.22" length="108.58" width="3.75" shape="1168.93,257.13 1074.55,310.78"/>
    <lane id=":0_1_1" index="1" disallow="pedestrian tram rail_urban rail rail_electric rail_fast ship" speed="22.22" length="108.58" width="3.75" shape="1167.08,253.87 1072.69,307.52"/>
    <lane id=":0_1_2" index="2" disallow="pedestrian tram rail_urban rail rail_electric rail_fast ship" speed="22.22" length="108.58" width="3.75" shape="1165.23,250.61 1070.83,304.27"/>
  </edge>
  <edge id=":1_0" function="internal">
    <lane id=":1_0_0" index="0" disallow="pedestrian tram rail_urban rail rail_electric rail_fast ship" speed="22.22" length="35.34" width="3.75" shape="250.22,890.03 258.12,882.19,0.03 264.83,874.42,0.05 269.91,867.72,0.08 272.96,863.10,0.09"/>
  </edge>
  <edge id=":1_1" function="internal">
    <lane id=":1_1_0" index="0" disallow="pedestrian tram rail_urban rail rail_electric rail_fast ship" speed="22.22" length="35.66" width="3.75" shape="250.22,890.03 276.72,866.16"/>
    <lane id=":1_1_1" index="1" disallow="pedestrian tram rail_urban rail rail_electric rail_fast ship" speed="22.22" length="35.66" width="3.75" shape="252.73,892.81 279.23,868.95"/>
    <lane id=":1_1_2" index="2" disallow="pedestrian tram rail_urban rail rail_electric rail_fast ship" speed="22.22" length="35.66" width="3.75" shape="255.25,895.60 281.74,871.73"/>
  </edge>
  <edge id=":10_0" function="internal">
    <lane id=":10_0_0" index="0" disallow="pedestrian tram rail_urban rail rail_electric rail_fast ship" speed="22.22" length="8.00" width="3.75" shape="994.88,996.73,20.00 999.46,1003.28,20.00"/>
    <lane id=":10_0_1" index="1" disallow="pedestrian tram rail_urban rail rail_electric rail_fast ship" speed="22.22" length="8.00" width="3.75" shape="991.81,998.88,20.00 996.39,1005.43,20.00"/>
    <lane id=":10_0_2" index="2" disallow="pedestrian tram rail_urban rail rail_electric rail_fast ship" speed="22.22" length="8.00" width="3.75" shape="988.73,1001.02,20.00 993.32,1007.58,20.00"/>
  </edge>
  <edge id=":10_3" function="internal">
    <lane id=":10_3_0" index="0" disallow="pedestrian tram rail_urban rail rail_electric rail_fast ship" speed="22.22" length="7.99" width="3.75" shape="994.87,996.75,20.00 999.46,1003.28,20.00"/>
  </edge>
  <edge id=":11_0" function="internal">
    <lane id=":11_0_0" index="0" disallow="pedestrian tram rail_urban rail rail_electric rail_fast ship" speed="20.83" length="80.68" width="3.75" shape="483.73,677.87,0.13 493.90,670.42,0.11 513.09,656.04,0.07 533.67,640.38,0.03 548.00,629.11"/>
  </edge>
  <edge id=":11_1" function="internal">
    <lane id=":11_1_0" index="0" disallow="pedestrian tram rail_urban rail rail_electric rail_fast ship" speed="22.22" length="80.35" width="3.75" shape="486.57,680.99 548.00,629.11"/>
    <lane id=":11_1_1" index="1" disallow="pedestrian tram rail_urban rail rail_electric rail_fast ship" speed="22.22" length="80.35" width="3.75" shape="489.01,683.84 550.40,631.99"/>
    <lane id=":11_1_2" index="2" disallow="pedestrian tram rail_urban rail rail_electric rail_fast ship" speed="22.22" length="80.35" width="3.75" shape="491.45,686.69 552.79,634.88"/>
  </edge>
  <edge id=":11.10_0" function="internal">
    <lane id=":11.10_0_0" index="0" disallow="pedestrian tram rail_urban rail rail_electric rail_fast ship" speed="22.22" length="0.30" width="3.75" shape="700.52,591.42,20.00 700.71,591.66,20.00"/>
    <lane id=":11.10_0_1" index="1" disallow="pedestrian tram rail_urban rail rail_electric rail_fast ship" speed="22.22" length="0.30" width="3.75" shape="697.60,593.78,20.00 697.79,594.02,20.00"/>
    <lane id=":11.10_0_2" index="2" disallow="pedestrian tram rail_urban rail rail_electric rail_fast ship" speed="22.22" length="0.30" width="3.75" shape="694.69,596.14,20.00 694.87,596.37,20.00"/>
  </edge>
  <edge id=":16.15_0" function="internal">
    <lane id=":16.15_0_0" index="0" disallow="pedestrian tram rail_urban rail rail_electric rail_fast ship" speed="22.22" length="0.30" width="3.75" shape="683.01,605.95,20.00 682.82,605.72,20.00"/>
    <lane id=":16.15_0_1" index="1" disallow="pedestrian tram rail_urban rail rail_electric rail_fast ship" speed="22.22" length="0.30" width="3.75" shape="685.93,603.60,20.00 685.74,603.36,20.00"/>
    <lane id=":16.15_0_2" index="2" disallow="pedestrian tram rail_urban rail rail_electric rail_fast ship" speed="22.22" length="0.30" width="3.75" shape="688.85,601.24,20.00 688.66,601.01,20.00"/>
  </edge>
  <edge id=":2_0" function="internal">
    <lane id=":2_0_0" index="0" disallow="pedestrian tram rail_urban rail rail_electric rail_fast ship" speed="19.44" length="75.54" width="3.75" shape="266.43,115.56,20.00 278.81,127.82,20.00 296.29,144.40,20.00 312.55,159.55,20.00 321.28,167.50,20.00"/>
  </edge>
  <edge id=":2_1" function="internal">
    <lane id=":2_1_0" index="0" disallow="pedestrian tram rail_urban rail rail_electric rail_fast ship" speed="22.22" length="75.66" width="3.75" shape="266.43,115.56,20.00 318.41,170.54,20.00"/>
    <lane id=":2_1_1" index="1" disallow="pedestrian tram rail_urban rail rail_electric rail_fast ship" speed="22.22" length="75.66" width="3.75" shape="263.71,118.14,20.00 315.68,173.12,20.00"/>
    <lane id=":2_1_2" index="2" disallow="pedestrian tram rail_urban rail rail_electric rail_fast ship" speed="22.22" length="75.66" width="3.75" shape="260.98,120.72,20.00 312.96,175.69,20.00"/>
  </edge>
  <edge id=":2.1_0" function="internal">
    <lane id=":2.1_0_0" index="0" disallow="pedestrian tram rail_urban rail rail_electric rail_fast ship" speed="22.22" length="0.30" width="3.75" shape="680.86,553.30 680.62,553.47"/>
    <lane id=":2.1_0_1" index="1" disallow="pedestrian tram rail_urban rail rail_electric rail_fast ship" speed="22.22" length="0.30" width="3.75" shape="678.65,550.27 678.41,550.44"/>
    <lane id=":2.1_0_2" index="2" disallow="pedestrian tram rail_urban rail rail_electric rail_fast ship" speed="22.22" length="0.30" width="3.75" shape="676.45,547.23 676.20,547.41"/>
  </edge>
  <edge id=":20.19_0" function="internal">
    <lane id=":20.19_0_0" index="0" disallow="pedestrian tram rail_urban rail rail_electric rail_fast ship" speed="13.89" length="0.30" width="3.75" shape="561.82,852.26,7.32 561.53,852.18,7.31"/>
  </edge>
  <edge id=":22.21_0" function="internal">
    <lane id=":22.21_0_0" index="0" disallow="pedestrian tram rail_urban rail rail_electric rail_fast ship" speed="16.67" length="0.30" width="3.75" shape="704.32,358.14,9.09 704.62,358.19,9.08"/>
  </edge>
  <edge id=":25.24_0" function="internal">
    <lane id=":25.24_0_0" index="0" disallow="pedestrian tram rail_urban rail rail_electric rail_fast ship" speed="19.44" length="0.30" width="3.75" shape="899.20,536.91,8.53 899.14,537.21,8.54"/>
  </edge>
  <edge id=":27.26_0" function="internal">
    <lane id=":27.26_0_0" index="0" disallow="pedestrian tram rail_urban rail rail_electric rail_fast ship" speed="8.33" length="0.26" width="3.75" shape="842.27,626.00,11.86 842.01,625.99,11.86"/>
  </edge>
  <edge id=":29.28_0" function="internal">
    <lane id=":29.28_0_0" index="0" disallow="pedestrian tram rail_urban rail rail_electric rail_fast ship" speed="22.22" length="0.30" width="3.75" shape="375.71,643.89,5.98 376.00,643.93,5.99"/>
  </edge>
  <edge id=":3_0" function="internal">
    <lane id=":3_0_0" index="0" disallow="pedestrian tram rail_urban rail rail_electric rail_fast ship" speed="18.06" length="46.98" width="3.75" shape="1104.97,1194.78,20.00 1097.13,1184.47,19.98 1087.96,1173.54,19.95 1079.72,1164.26,19.93 1074.71,1158.89,19.92"/>
  </edge>
  <edge id=":3_1" function="internal">
    <lane id=":3_1_0" index="0" disallow="pedestrian tram rail_urban rail rail_electric rail_fast ship" speed="22.22" length="47.13" width="3.75" shape="1104.97,1194.78,20.00 1078.11,1156.06,20.00"/>
    <lane id=":3_1_1" index="1" disallow="pedestrian tram rail_urban rail rail_electric rail_fast ship" speed="22.22" length="47.13" width="3.75" shape="1108.05,1192.65,20.00 1081.19,1153.92,20.00"/>
    <lane id=":3_1_2" index="2" disallow="pedestrian tram rail_urban rail rail_electric rail_fast ship" speed="22.22" length="47.13" width="3.75" shape="1111.13,1190.51,20.00 1084.27,1151.78,20.00"/>
  </edge>
  <edge id=":31.30_0" function="internal">
    <lane id=":31.30_0_0" index="0" disallow="pedestrian tram rail_urban rail rail_electric rail_fast ship" speed="19.44" length="0.30" width="3.75" shape="44.98,398.59,11.07 44.82,398.83,11.06"/>
  </edge>
  <edge id=":4_0" function="internal">
    <lane id=":4_0_0" index="0" disallow="pedestrian tram rail_urban rail rail_electric rail_fast ship" speed="20.83" length="8.00" width="3.75" shape="622.99,535.03,20.00 617.71,529.02,20.00"/>
  </edge>
  <edge id=":4_1" function="internal">
    <lane id=":4_1_0" index="0" disallow="pedestrian tram rail_urban rail rail_electric rail_fast ship" speed="22.22" length="8.00" width="3.75" shape="622.99,535.03,20.00 617.72,529.02,20.00"/>
    <lane id=":4_1_1" index="1" disallow="pedestrian tram rail_urban rail rail_electric rail_fast ship" speed="22.22" length="8.00" width="3.75" shape="625.81,532.57,20.00 620.54,526.55,20.00"/>
    <lane id=":4_1_2" index="2" disallow="pedestrian tram rail_urban rail rail_electric rail_fast ship" speed="22.22" length="8.00" width="3.75" shape="628.63,530.10,20.00 623.36,524.07,20.00"/>
  </edge>
  <edge id=":5_0" function="internal">
    <lane id=":5_0_0" index="0" disallow="pedestrian tram rail_urban rail rail_electric rail_fast ship" speed="18.06" length="79.55" width="3.75" shape="283.76,896.11 273.94,903.73 255.49,918.44 235.72,934.50 221.94,946.15"/>
  </edge>
  <edge id=":5_1" function="internal">
    <lane id=":5_1_0" index="0" disallow="pedestrian tram rail_urban rail rail_electric rail_fast ship" speed="22.22" length="79.24" width="3.75" shape="280.78,893.09 221.94,946.15"/>
    <lane id=":5_1_1" index="1" disallow="pedestrian tram rail_urban rail rail_electric rail_fast ship" speed="22.22" length="79.24" width="3.75" shape="278.27,890.30 219.42,943.37"/>
    <lane id=":5_1_2" index="2" disallow="pedestrian tram rail_urban rail rail_electric rail_fast ship" speed="22.22" length="79.24" width="3.75" shape="275.76,887.52 216.91,940.58"/>
  </edge>
  <edge id=":6_0" function="internal">
    <lane id=":6_0_0" index="0" disallow="pedestrian tram rail_urban rail rail_electric rail_fast ship" speed="19.44" length="69.98" width="3.75" shape="1047.99,294.88,0.00 1057.91,290.28,0.00 1076.22,281.50,0.00 1096.11,271.69,0.00 1110.78,264.01"/>
  </edge>
  <edge id=":6_1" function="internal">
    <lane id=":6_1_0" index="0" disallow="pedestrian tram rail_urban rail rail_electric rail_fast ship" speed="22.22" length="69.65" width="3.75" shape="1050.25,298.49 1110.78,264.01"/>
    <lane id=":6_1_1" index="1" disallow="pedestrian tram rail_urban rail rail_electric rail_fast ship" speed="22.22" length="69.65" width="3.75" shape="1052.11,301.74 1112.63,267.27"/>
    <lane id=":6_1_2" index="2" disallow="pedestrian tram rail_urban rail rail_electric rail_fast ship" speed="22.22" length="69.65" width="3.75" shape="1053.97,305.00 1114.48,270.53"/>
  </edge>
  <edge id=":7_0" function="internal">
    <lane id=":7_0_0" index="0" disallow="pedestrian tram rail_urban rail rail_electric rail_fast ship" speed="20.83" length="8.00" width="3.75" shape="1015.63,1026.43,20.00 1020.21,1032.99,20.00"/>
  </edge>
  <edge id=":7_1" function="internal">
    <lane id=":7_1_0" index="0" disallow="pedestrian tram rail_urban rail rail_electric rail_fast ship" speed="22.22" length="8.00" width="3.75" shape="1015.63,1026.43,20.00 1020.21,1032.99,20.00"/>
    <lane id=":7_1_1" index="1" disallow="pedestrian tram rail_urban rail rail_electric rail_fast ship" speed="22.22" length="8.00" width="3.75" shape="1012.56,1028.58,20.00 1017.14,1035.14,20.00"/>
    <lane id=":7_1_2" index="2" disallow="pedestrian tram rail_urban rail rail_electric rail_fast ship" speed="22.22" length="8.00" width="3.75" shape="1009.48,1030.72,20.00 1014.06,1037.28,20.00"/>
  </edge>
  <edge id=":7.6_0" function="internal">
    <lane id=":7.6_0_0" index="0" disallow="pedestrian tram rail_urban rail rail_electric rail_fast ship" speed="22.22" length="0.30" width="3.75" shape="667.23,535.08 667.48,534.90"/>
    <lane id=":7.6_0_1" index="1" disallow="pedestrian tram rail_urban rail rail_electric rail_fast ship" speed="22.22" length="0.30" width="3.75" shape="669.44,538.11 669.68,537.93"/>
    <lane id=":7.6_0_2" index="2" disallow="pedestrian tram rail_urban rail rail_electric rail_fast ship" speed="22.22" length="0.30" width="3.75" shape="671.65,541.14 671.89,540.97"/>
  </edge>
  <edge id=":8_0" function="internal">
    <lane id=":8_0_0" index="0" disallow="pedestrian tram rail_urban rail rail_electric rail_fast ship" speed="19.44" length="3.02" width="3.75" shape="905.44,511.68,7.64 904.58,514.57,7.74"/>
  </edge>
  <edge id=":8_1" function="internal">
    <lane id=":8_1_0" index="0" disallow="pedestrian tram rail_urban rail rail_electric rail_fast ship" speed="13.89" length="3.03" width="3.75" shape="905.44,511.68,7.64 904.57,514.58,7.69"/>
  </edge>
  <edge id=":9_0" function="internal">
    <lane id=":9_0_0" index="0" disallow="pedestrian tram rail_urban rail rail_electric rail_fast ship" speed="22.22" length="8.00" width="3.75" shape="601.79,510.94,20.00 596.48,504.96,20.00"/>
    <lane id=":9_0_1" index="1" disallow="pedestrian tram rail_urban rail rail_electric rail_fast ship" speed="22.22" length="8.00" width="3.75" shape="604.59,508.45,20.00 599.28,502.47,20.00"/>
    <lane id=":9_0_2" index="2" disallow="pedestrian tram rail_urban rail rail_electric rail_fast ship" speed="22.22" length="8.00" width="3.75" shape="607.40,505.97,20.00 602.09,499.98,20.00"/>
  </edge>
  <edge id=":9_3" function="internal">
    <lane id=":9_3_0" index="0" disallow="pedestrian tram rail_urban rail rail_electric rail_fast ship" speed="15.28" length="7.90" width="3.75" shape="601.81,510.80,20.00 596.48,504.96,20.00"/>
  </edge>
  <edge id="-0" from="0.begin" to="0" priority="1" type="driving" shape="1244.20,202.87 1243.07,203.56 1241.91,204.25 1240.72,204.96 1239.51,205.69 1238.27,206.42 1237.00,207.17 1235.71,207.94 1234.39,208.72 1233.05,209.51 1231.68,210.31 1230.29,211.13 1228.87,211.96 1227.43,212.80 1225.96,213.66 1224.47,214.52 1222.96,215.40 1221.42,216.30 1219.86,217.20 1218.27,218.12 1216.66,219.05 1215.03,219.99 1213.38,220.95 1211.70,221.91 1210.00,222.89 1208.28,223.88 1206.54,224.88 1204.77,225.90 1202.99,226.92 1201.18,227.96 1199.35,229.01 1197.50,230.07 1195.63,231.14 1193.74,232.22 1191.82,233.31 1189.89,234.41 1187.94,235.53 1185.97,236.65 1183.97,237.79 1181.96,238.93 1179.93,240.09 1177.88,241.26 1175.81,242.44 1173.73,243.62 1171.62,244.82 1169.50,246.03 1167.36,247.25 1165.20,248.47 1163.02,249.71 1160.82,250.96">
    <lane id="-0_0" index="0" disallow="pedestrian tram rail_urban rail rail_electric rail_fast ship" speed="22.22" length="92.39" width="3.75" shape="1249.03,210.91 1247.90,211.59 1246.72,212.30 1245.53,213.01 1244.30,213.74 1243.05,214.48 1241.78,215.24 1240.48,216.01 1239.15,216.79 1237.80,217.59 1236.43,218.39 1235.03,219.22 1233.60,220.05 1232.16,220.90 1230.68,221.75 1229.19,222.63 1227.67,223.51 1226.13,224.41 1224.56,225.31 1222.97,226.23 1221.36,227.17 1219.72,228.11 1218.06,229.07 1216.38,230.04 1214.68,231.02 1212.96,232.01 1211.21,233.01 1209.44,234.03 1207.65,235.06 1205.84,236.09 1204.01,237.14 1202.16,238.20 1200.28,239.28 1198.39,240.36 1196.47,241.45 1194.54,242.56 1192.58,243.67 1190.61,244.80 1188.62,245.93 1186.60,247.08 1184.57,248.24 1182.52,249.41 1180.45,250.58 1178.36,251.77 1176.26,252.97 1174.13,254.18 1171.99,255.40 1169.83,256.62 1168.93,257.13" type="driving"/>
    <lane id="-0_1" index="1" disallow="pedestrian tram rail_urban rail rail_electric rail_fast ship" speed="22.22" length="92.39" width="3.75" shape="1247.10,207.69 1245.96,208.38 1244.80,209.08 1243.60,209.79 1242.38,210.52 1241.14,211.26 1239.87,212.01 1238.57,212.78 1237.25,213.56 1235.90,214.35 1234.53,215.16 1233.13,215.98 1231.71,216.81 1230.27,217.66 1228.80,218.51 1227.30,219.38 1225.78,220.27 1224.24,221.16 1222.68,222.07 1221.09,222.99 1219.48,223.92 1217.85,224.86 1216.19,225.82 1214.51,226.79 1212.81,227.77 1211.09,228.76 1209.34,229.76 1207.57,230.78 1205.79,231.80 1203.98,232.84 1202.14,233.89 1200.29,234.95 1198.42,236.02 1196.53,237.10 1194.61,238.20 1192.68,239.30 1190.73,240.41 1188.75,241.54 1186.76,242.68 1184.75,243.82 1182.72,244.98 1180.67,246.15 1178.60,247.32 1176.51,248.51 1174.40,249.71 1172.28,250.92 1170.13,252.14 1167.97,253.36 1167.08,253.87" type="driving"/>
    <lane id="-0_2" index="2" disallow="pedestrian tram rail_urban rail rail_electric rail_fast ship" speed="22.22" length="92.39" width="3.75" shape="1245.17,204.48 1244.03,205.16 1242.87,205.86 1241.68,206.57 1240.46,207.30 1239.22,208.04 1237.96,208.79 1236.66,209.55 1235.34,210.33 1234.00,211.12 1232.63,211.93 1231.24,212.74 1229.82,213.58 1228.37,214.42 1226.91,215.27 1225.42,216.14 1223.90,217.03 1222.36,217.92 1220.80,218.83 1219.21,219.74 1217.60,220.67 1215.97,221.62 1214.32,222.57 1212.64,223.54 1210.94,224.52 1209.22,225.51 1207.47,226.51 1205.71,227.52 1203.92,228.55 1202.11,229.59 1200.28,230.63 1198.43,231.69 1196.56,232.76 1194.67,233.85 1192.75,234.94 1190.82,236.04 1188.87,237.16 1186.90,238.28 1184.90,239.42 1182.89,240.56 1180.86,241.72 1178.81,242.89 1176.74,244.06 1174.65,245.25 1172.55,246.45 1170.42,247.66 1168.28,248.88 1166.12,250.10 1165.23,250.61" type="driving"/>
  </edge>
  <edge id="-1" from="0" to="2.1" priority="1" type="driving" shape="1160.82,250.96 1159.43,251.75 1158.02,252.55 1156.61,253.35 1155.19,254.15 1153.77,254.96 1152.34,255.78 1150.90,256.59 1149.45,257.41 1148.00,258.23 1146.55,259.06 1145.08,259.89 1143.61,260.73 1142.14,261.57 1140.65,262.41 1139.16,263.25 1137.67,264.10 1136.17,264.95 1134.66,265.81 1133.15,266.67 1131.63,267.53 1130.10,268.39 1128.57,269.26 1127.04,270.14 1125.49,271.01 1123.94,271.89 1122.39,272.77 1120.83,273.66 1119.27,274.55 1117.69,275.44 1116.12,276.33 1114.54,277.23 1112.95,278.13 1111.36,279.04 1109.76,279.95 1108.16,280.86 1106.55,281.77 1104.94,282.69 1103.32,283.61 1101.70,284.53 1100.07,285.45 1098.43,286.38 1096.80,287.32 1095.15,288.25 1093.51,289.19 1091.85,290.13 1090.20,291.07 1088.54,292.02 1086.87,292.96 1085.20,293.92 1083.52,294.87 1081.85,295.83 1080.16,296.79 1078.47,297.75 1076.78,298.71 1075.08,299.68 1073.38,300.65 1071.68,301.62 1069.97,302.60 1068.26,303.58 1066.54,304.56 1064.82,305.54 1063.09,306.52 1061.37,307.51 1059.63,308.50 1057.90,309.49 1056.16,310.49 1054.41,311.49 1052.67,312.49 1050.92,313.49 1049.16,314.49 1047.41,315.50 1045.65,316.51 1043.88,317.52 1042.11,318.53 1040.34,319.55 1038.57,320.56 1036.79,321.58 1035.01,322.60 1033.23,323.63 1031.44,324.65 1029.66,325.68 1027.86,326.71 1026.07,327.74 1024.27,328.78 1022.47,329.81 1020.67,330.85 1018.86,331.89 1017.06,332.93 1015.25,333.98 1013.43,335.02 1011.62,336.07 1009.80,337.12 1007.98,338.17 1006.16,339.22 1004.33,340.27 1002.51,341.33 1000.68,342.39 998.85,343.45 997.01,344.51 995.18,345.57 993.34,346.63 991.50,347.70 989.66,348.76 987.82,349.83 985.98,350.90 984.13,351.97 982.28,353.05 980.44,354.12 978.58,355.20 976.73,356.27 974.88,357.35 973.03,358.43 971.17,359.51 969.31,360.60 967.45,361.68 965.59,362.77 963.73,363.85 961.87,364.94 960.01,366.03 958.14,367.12 956.28,368.21 954.41,369.30 952.55,370.40 950.68,371.49 948.81,372.58 946.94,373.68 945.07,374.78 943.20,375.88 941.33,376.98 939.46,378.08 937.59,379.18 935.72,380.28 933.85,381.38 931.97,382.49 930.10,383.59 928.23,384.70 926.36,385.80 924.48,386.91 922.61,388.02 920.74,389.13 918.86,390.24 916.99,391.35 915.12,392.46 913.25,393.57 911.37,394.68 909.50,395.79 907.63,396.90 905.76,398.02 903.89,399.13 902.02,400.25 900.15,401.36 898.28,402.48 896.41,403.59 894.55,404.71 892.68,405.82 890.81,406.94 888.95,408.06 887.08,409.18 885.22,410.29 883.36,411.41 881.50,412.53 879.64,413.65 877.78,414.77 875.92,415.89 874.07,417.01 872.21,418.13 870.36,419.24 868.50,420.36 866.65,421.48 864.80,422.60 862.96,423.72 861.11,424.84 859.27,425.96 857.42,427.08 855.58,428.20 853.74,429.32 851.91,430.44 850.07,431.56 848.24,432.68 846.41,433.80 844.58,434.91 842.75,436.03 840.93,437.15 839.10,438.27 837.28,439.39 835.46,440.50 833.65,441.62 831.83,442.74 830.02,443.85 828.22,444.97 826.41,446.08 824.61,447.20 822.81,448.31 821.01,449.43 819.21,450.54 817.42,451.65 815.63,452.77 813.84,453.88 812.06,454.99 810.28,456.10 808.50,457.21 806.73,458.32 804.96,459.43 803.19,460.53 801.42,461.64 799.66,462.75 797.90,463.85 796.15,464.96 794.40,466.06 792.65,467.16 790.91,468.27 789.17,469.37 787.43,470.47 785.70,471.57 783.97,472.66 782.24,473.76 780.52,474.86 778.80,475.95 777.09,477.05 775.38,478.14 773.67,479.23 771.97,480.32 770.27,481.41 768.58,482.50 766.89,483.59 765.21,484.67 763.52,485.76 761.85,486.84 760.18,487.93 758.51,489.01 756.85,490.09 755.19,491.17 753.54,492.24 751.89,493.32 750.24,494.39 748.61,495.47 746.97,496.54 745.34,497.61 743.72,498.67 742.10,499.74 740.48,500.81 738.88,501.87 737.27,502.93 735.67,503.99 734.08,505.05 732.49,506.11 730.91,507.16 729.33,508.22 727.76,509.27 726.19,510.32 724.63,511.37 723.08,512.42 721.53,513.46 719.98,514.50 718.44,515.55 716.91,516.58 715.39,517.62 713.87,518.66 712.35,519.69 710.84,520.72 709.34,521.75 707.84,522.78 706.35,523.81 704.87,524.83 703.39,525.85 701.92,526.87 700.45,527.89 698.99,528.90 697.54,529.91 696.10,530.93 694.66,531.93 693.22,532.94 691.80,533.94 690.38,534.95 688.97,535.94 687.56,536.94 686.16,537.94 684.77,538.93 683.38,539.92 682.01,540.91 680.64,541.89 679.27,542.87 677.91,543.85 676.56,544.83 675.22,545.80">
    <lane id="-1_0" index="0" disallow="pedestrian tram rail_urban rail rail_electric rail_fast ship" speed="22.22" length="463.00" width="3.75" shape="1074.55,310.78 1072.90,311.72 1071.19,312.70 1069.47,313.68 1067.74,314.66 1066.02,315.65 1064.29,316.64 1062.55,317.63 1060.81,318.63 1059.07,319.62 1057.32,320.62 1055.57,321.62 1053.82,322.63 1052.07,323.63 1050.31,324.64 1048.54,325.65 1046.78,326.66 1045.01,327.68 1043.23,328.70 1041.46,329.71 1039.68,330.74 1037.90,331.76 1036.11,332.78 1034.33,333.81 1032.54,334.84 1030.74,335.87 1028.95,336.90 1027.15,337.94 1025.35,338.98 1023.54,340.01 1021.74,341.05 1019.93,342.10 1018.12,343.14 1016.30,344.19 1014.49,345.24 1012.67,346.29 1010.85,347.34 1009.02,348.39 1007.20,349.44 1005.37,350.50 1003.54,351.56 1001.71,352.62 999.88,353.68 998.04,354.74 996.21,355.81 994.37,356.87 992.53,357.94 990.68,359.01 988.84,360.08 986.99,361.15 985.15,362.23 983.30,363.30 981.45,364.38 979.60,365.46 977.74,366.53 975.89,367.61 974.03,368.70 972.18,369.78 970.32,370.86 968.46,371.95 966.60,373.03 964.74,374.12 962.88,375.21 961.01,376.30 959.15,377.39 957.29,378.48 955.42,379.58 953.55,380.67 951.69,381.77 949.82,382.86 947.95,383.96 946.08,385.06 944.22,386.16 942.35,387.26 940.48,388.36 938.61,389.46 936.74,390.56 934.87,391.67 933.00,392.77 931.13,393.87 929.26,394.98 927.38,396.09 925.51,397.19 923.64,398.30 921.77,399.41 919.90,400.52 918.03,401.63 916.16,402.74 914.29,403.85 912.42,404.96 910.56,406.07 908.69,407.19 906.82,408.30 904.95,409.41 903.09,410.53 901.22,411.64 899.36,412.75 897.49,413.87 895.63,414.98 893.77,416.10 891.91,417.22 890.05,418.33 888.19,419.45 886.33,420.57 884.47,421.68 882.62,422.80 880.76,423.92 878.91,425.03 877.06,426.15 875.20,427.27 873.36,428.39 871.51,429.50 869.66,430.62 867.82,431.74 865.97,432.86 864.13,433.97 862.29,435.09 860.46,436.21 858.62,437.33 856.79,438.44 854.95,439.56 853.12,440.68 851.30,441.80 849.47,442.91 847.65,444.03 845.82,445.14 844.01,446.26 842.19,447.37 840.37,448.49 838.56,449.60 836.75,450.72 834.94,451.83 833.14,452.95 831.34,454.06 829.54,455.17 827.74,456.28 825.95,457.40 824.16,458.51 822.37,459.62 820.58,460.73 818.80,461.84 817.02,462.94 815.24,464.05 813.47,465.16 811.70,466.27 809.93,467.37 808.17,468.48 806.41,469.58 804.65,470.68 802.90,471.79 801.15,472.89 799.40,473.99 797.66,475.09 795.92,476.19 794.18,477.29 792.45,478.38 790.72,479.48 788.99,480.58 787.27,481.67 785.56,482.76 783.84,483.86 782.13,484.95 780.43,486.04 778.73,487.13 777.03,488.21 775.34,489.30 773.65,490.39 771.97,491.47 770.29,492.55 768.61,493.63 766.94,494.71 765.28,495.79 763.61,496.87 761.96,497.95 760.30,499.02 758.66,500.10 757.01,501.17 755.38,502.24 753.74,503.31 752.11,504.37 750.49,505.44 748.87,506.51 747.26,507.57 745.65,508.63 744.05,509.69 742.45,510.75 740.86,511.80 739.27,512.86 737.69,513.91 736.11,514.96 734.54,516.01 732.98,517.06 731.42,518.11 729.86,519.15 728.31,520.19 726.77,521.23 725.23,522.27 723.70,523.31 722.18,524.34 720.66,525.37 719.15,526.40 717.64,527.43 716.14,528.46 714.64,529.48 713.15,530.51 711.67,531.53 710.19,532.54 708.72,533.56 707.26,534.57 705.80,535.59 704.35,536.59 702.91,537.60 701.47,538.61 700.04,539.61 698.62,540.61 697.20,541.61 695.79,542.60 694.38,543.60 692.99,544.59 691.60,545.57 690.22,546.56 688.84,547.54 687.47,548.52 686.11,549.50 684.76,550.48 683.41,551.45 682.07,552.42 680.86,553.30" type="driving"/>