<?xml version='1.0' encoding='UTF-8'?>
<!-- generated on 2022-11-12 22:59:40 by Eclipse SUMO netconvert Version 1.13.0
<configuration xmlns:xsi="http://www.w3.org/2001/XMLSchema-instance" xsi:noNamespaceSchemaLocation="http://sumo.dlr.de/xsd/netconvertConfiguration.xsd">

    <input>
        <opendrive-files value="map_v4\7\4375\4375.xodr"/>
    </input>

    <output>
        <output-file value="C:\Users\LinGe\AppData\Local\Temp\tmpv84a4x_i\4375.net.xml"/>
    </output>

    <processing>
        <geometry.max-grade.fix value="false"/>
    </processing>

    <tls_building>
        <tls.left-green.time value="0"/>
    </tls_building>

    <junctions>
        <rectangular-lane-cut value="true"/>
    </junctions>

    <report>
        <aggregate-warnings value="5"/>
    </report>

</configuration>
-->
<net xmlns:xsi="http://www.w3.org/2001/XMLSchema-instance" version="1.9" junctionCornerDetail="5" rectangularLaneCut="true" limitTurnSpeed="5.50" xsi:noNamespaceSchemaLocation="http://sumo.dlr.de/xsd/net_file.xsd">
  <location netOffset="67.36,114.75" convBoundary="0.00,0.00,1168.54,1316.01" origBoundary="-67.36,-114.75,1101.18,1201.26" projParameter="!"/>
  <type id="bidirectional" priority="1" speed="1.39" disallow="pedestrian tram rail_urban rail rail_electric rail_fast ship" width="3.65"/>
  <type id="border" priority="0" speed="1.39" disallow="all" discard="1" width="0.10"/>
  <type id="driving" priority="1" speed="13.89" disallow="pedestrian tram rail_urban rail rail_electric rail_fast ship" width="3.65"/>
  <type id="entry" priority="1" speed="22.22" disallow="pedestrian tram rail_urban rail rail_electric rail_fast ship" width="3.65"/>
  <type id="exit" priority="1" speed="22.22" disallow="pedestrian tram rail_urban rail rail_electric rail_fast ship" width="3.65"/>
  <type id="median" priority="0" speed="1.39" disallow="all" discard="1" width="0.10"/>
  <type id="mwyEntry" priority="1" speed="22.22" allow="private emergency authority army vip passenger hov taxi bus coach delivery truck trailer motorcycle evehicle custom1 custom2" width="3.65"/>
  <type id="mwyExit" priority="1" speed="22.22" allow="private emergency authority army vip passenger hov taxi bus coach delivery truck trailer motorcycle evehicle custom1 custom2" width="3.65"/>
  <type id="none" priority="0" speed="1.39" disallow="all" discard="1" width="1.00"/>
  <type id="offRamp" priority="1" speed="22.22" allow="private emergency authority army vip passenger hov taxi bus coach delivery truck trailer motorcycle evehicle custom1 custom2" width="3.65"/>
  <type id="onRamp" priority="1" speed="22.22" allow="private emergency authority army vip passenger hov taxi bus coach delivery truck trailer motorcycle evehicle custom1 custom2" width="3.65"/>
  <type id="parking" priority="1" speed="1.39" disallow="pedestrian tram rail_urban rail rail_electric rail_fast ship" width="2.50"/>
  <type id="rail" priority="3" speed="33.33" allow="rail_urban rail rail_electric rail_fast" width="3.65"/>
  <type id="restricted" priority="0" speed="13.89" disallow="all" width="3.65"/>
  <type id="roadWorks" priority="0" speed="1.39" allow="authority" width="3.65"/>
  <type id="shoulder" priority="0" speed="1.39" disallow="all" discard="1" width="1.00"/>
  <type id="special1" priority="1" speed="22.22" allow="custom1" discard="1" width="3.65"/>
  <type id="special2" priority="1" speed="22.22" allow="custom2" discard="1" width="3.65"/>
  <type id="special3" priority="1" speed="22.22" allow="custom1 custom2" discard="1" width="3.65"/>
  <type id="stop" priority="1" speed="13.89" disallow="pedestrian tram rail_urban rail rail_electric rail_fast ship" width="3.65"/>
  <type id="tram" priority="2" speed="13.89" allow="tram" width="3.65"/>
  <edge id=":0_0" function="internal">
    <lane id=":0_0_0" index="0" disallow="pedestrian tram rail_urban rail rail_electric rail_fast ship" speed="16.67" length="47.99" width="3.75" shape="1083.37,277.38 1072.33,284.45,0.04 1060.39,292.89,0.08 1050.18,300.53,0.12 1044.31,305.20,0.15"/>
  </edge>
  <edge id=":0_1" function="internal">
    <lane id=":0_1_0" index="0" disallow="pedestrian tram rail_urban rail rail_electric rail_fast ship" speed="22.22" length="48.17" width="3.75" shape="1083.37,277.38 1041.72,301.57"/>
    <lane id=":0_1_1" index="1" disallow="pedestrian tram rail_urban rail rail_electric rail_fast ship" speed="22.22" length="48.17" width="3.75" shape="1081.49,274.14 1039.84,298.33"/>
    <lane id=":0_1_2" index="2" disallow="pedestrian tram rail_urban rail rail_electric rail_fast ship" speed="22.22" length="48.17" width="3.75" shape="1079.61,270.90 1037.96,295.09"/>
  </edge>
  <edge id=":1_0" function="internal">
    <lane id=":1_0_0" index="0" disallow="pedestrian tram rail_urban rail rail_electric rail_fast ship" speed="19.21" length="20.67" width="3.75" shape="228.27,859.29 233.06,854.48,0.00 236.22,850.07,0.00 238.20,846.02,0.00 239.45,842.27,0.01"/>
  </edge>
  <edge id=":1_1" function="internal">
    <lane id=":1_1_0" index="0" disallow="pedestrian tram rail_urban rail rail_electric rail_fast ship" speed="22.22" length="21.18" width="3.75" shape="228.27,859.29 244.23,845.36"/>
    <lane id=":1_1_1" index="1" disallow="pedestrian tram rail_urban rail rail_electric rail_fast ship" speed="22.22" length="21.18" width="3.75" shape="230.73,862.11 246.70,848.19"/>
    <lane id=":1_1_2" index="2" disallow="pedestrian tram rail_urban rail rail_electric rail_fast ship" speed="22.22" length="21.18" width="3.75" shape="233.20,864.94 249.16,851.01"/>
  </edge>
  <edge id=":13.12_0" function="internal">
    <lane id=":13.12_0_0" index="0" disallow="pedestrian tram rail_urban rail rail_electric rail_fast ship" speed="22.22" length="0.30" width="3.75" shape="619.21,808.51,20.00 619.02,808.27,20.00"/>
    <lane id=":13.12_0_1" index="1" disallow="pedestrian tram rail_urban rail rail_electric rail_fast ship" speed="22.22" length="0.30" width="3.75" shape="622.13,806.15,20.00 621.94,805.92,20.00"/>
    <lane id=":13.12_0_2" index="2" disallow="pedestrian tram rail_urban rail rail_electric rail_fast ship" speed="22.22" length="0.30" width="3.75" shape="625.04,803.79,20.00 624.86,803.56,20.00"/>
  </edge>
  <edge id=":16.15_0" function="internal">
    <lane id=":16.15_0_0" index="0" disallow="pedestrian tram rail_urban rail rail_electric rail_fast ship" speed="13.89" length="0.30" width="3.75" shape="500.35,807.15,9.68 500.06,807.12,9.66"/>
  </edge>
  <edge id=":18.17_0" function="internal">
    <lane id=":18.17_0_0" index="0" disallow="pedestrian tram rail_urban rail rail_electric rail_fast ship" speed="11.11" length="0.30" width="3.75" shape="860.30,628.69,8.28 860.27,628.99,8.29"/>
  </edge>
  <edge id=":2_0" function="internal">
    <lane id=":2_0_0" index="0" disallow="pedestrian tram rail_urban rail rail_electric rail_fast ship" speed="18.06" length="129.54" width="3.75" shape="814.72,1024.08,20.00 722.85,932.76,20.00"/>
  </edge>
  <edge id=":2_1" function="internal">
    <lane id=":2_1_0" index="0" disallow="pedestrian tram rail_urban rail rail_electric rail_fast ship" speed="22.22" length="129.73" width="3.75" shape="814.72,1024.08,20.00 725.56,929.75,20.00"/>
    <lane id=":2_1_1" index="1" disallow="pedestrian tram rail_urban rail rail_electric rail_fast ship" speed="22.22" length="129.73" width="3.75" shape="817.43,1021.48,20.00 728.32,927.20,20.00"/>
    <lane id=":2_1_2" index="2" disallow="pedestrian tram rail_urban rail rail_electric rail_fast ship" speed="22.22" length="129.73" width="3.75" shape="820.13,1018.88,20.00 731.07,924.65,20.00"/>
  </edge>
  <edge id=":2.1_0" function="internal">
    <lane id=":2.1_0_0" index="0" disallow="pedestrian tram rail_urban rail rail_electric rail_fast ship" speed="22.22" length="0.30" width="3.75" shape="620.22,563.86 619.98,564.03"/>
    <lane id=":2.1_0_1" index="1" disallow="pedestrian tram rail_urban rail rail_electric rail_fast ship" speed="22.22" length="0.30" width="3.75" shape="618.02,560.82 617.77,561.00"/>
    <lane id=":2.1_0_2" index="2" disallow="pedestrian tram rail_urban rail rail_electric rail_fast ship" speed="22.22" length="0.30" width="3.75" shape="615.81,557.79 615.57,557.97"/>
  </edge>
  <edge id=":21.20_0" function="internal">
    <lane id=":21.20_0_0" index="0" disallow="pedestrian tram rail_urban rail rail_electric rail_fast ship" speed="22.22" length="0.30" width="3.75" shape="72.34,126.09,6.05 72.53,125.86,6.04"/>
  </edge>
  <edge id=":23.22_0" function="internal">
    <lane id=":23.22_0_0" index="0" disallow="pedestrian tram rail_urban rail rail_electric rail_fast ship" speed="16.67" length="0.30" width="3.75" shape="477.86,226.66,6.96 478.16,226.66,6.96"/>
  </edge>
  <edge id=":3_0" function="internal">
    <lane id=":3_0_0" index="0" disallow="pedestrian tram rail_urban rail rail_electric rail_fast ship" speed="18.06" length="72.80" width="3.75" shape="227.02,896.24,0.00 217.88,903.01,0.00 200.96,915.92,0.00 182.71,930.15,0.00 169.55,940.91"/>
  </edge>
  <edge id=":3_1" function="internal">
    <lane id=":3_1_0" index="0" disallow="pedestrian tram rail_urban rail rail_electric rail_fast ship" speed="22.22" length="72.48" width="3.75" shape="224.06,893.15 169.55,940.91"/>
    <lane id=":3_1_1" index="1" disallow="pedestrian tram rail_urban rail rail_electric rail_fast ship" speed="22.22" length="72.48" width="3.75" shape="221.59,890.33 167.08,938.09"/>
    <lane id=":3_1_2" index="2" disallow="pedestrian tram rail_urban rail rail_electric rail_fast ship" speed="22.22" length="72.48" width="3.75" shape="219.13,887.51 164.61,935.27"/>
  </edge>
  <edge id=":4_0" function="internal">
    <lane id=":4_0_0" index="0" disallow="pedestrian tram rail_urban rail rail_electric rail_fast ship" speed="13.89" length="3.00" width="3.75" shape="556.97,819.52,12.06 554.11,818.59,11.94"/>
  </edge>
  <edge id=":4_1" function="internal">
    <lane id=":4_1_0" index="0" disallow="pedestrian tram rail_urban rail rail_electric rail_fast ship" speed="18.06" length="3.01" width="3.75" shape="556.97,819.52,12.06 554.10,818.58,12.00"/>
  </edge>
  <edge id=":5_0" function="internal">
    <lane id=":5_0_0" index="0" disallow="pedestrian tram rail_urban rail rail_electric rail_fast ship" speed="16.67" length="71.84" width="3.75" shape="959.94,1133.83,20.00 967.15,1142.43,20.00 980.86,1158.27,20.00 995.99,1175.36,20.00 1007.45,1187.70,20.00"/>
  </edge>
  <edge id=":5_1" function="internal">
    <lane id=":5_1_0" index="0" disallow="pedestrian tram rail_urban rail rail_electric rail_fast ship" speed="22.22" length="71.50" width="3.75" shape="957.04,1137.00,20.00 1007.45,1187.70,20.00"/>
    <lane id=":5_1_1" index="1" disallow="pedestrian tram rail_urban rail rail_electric rail_fast ship" speed="22.22" length="71.50" width="3.75" shape="954.38,1139.64,20.00 1004.79,1190.34,20.00"/>
    <lane id=":5_1_2" index="2" disallow="pedestrian tram rail_urban rail rail_electric rail_fast ship" speed="22.22" length="71.50" width="3.75" shape="951.72,1142.28,20.00 1002.14,1192.99,20.00"/>
  </edge>
  <edge id=":6_0" function="internal">
    <lane id=":6_0_0" index="0" disallow="pedestrian tram rail_urban rail rail_electric rail_fast ship" speed="11.64" length="17.02" width="3.75" shape="951.26,317.77,0.00 955.89,319.56,0.00 960.15,320.28,0.00 964.05,319.92,0.00 967.59,318.50"/>
  </edge>
  <edge id=":6_1" function="internal">
    <lane id=":6_1_0" index="0" disallow="pedestrian tram rail_urban rail rail_electric rail_fast ship" speed="22.22" length="14.62" width="3.75" shape="954.97,325.89 967.59,318.50"/>
    <lane id=":6_1_1" index="1" disallow="pedestrian tram rail_urban rail rail_electric rail_fast ship" speed="22.22" length="14.62" width="3.75" shape="956.87,329.13 969.48,321.73"/>
    <lane id=":6_1_2" index="2" disallow="pedestrian tram rail_urban rail rail_electric rail_fast ship" speed="22.22" length="14.62" width="3.75" shape="958.77,332.36 971.38,324.97"/>
  </edge>
  <edge id=":6.5_0" function="internal">
    <lane id=":6.5_0_0" index="0" disallow="pedestrian tram rail_urban rail rail_electric rail_fast ship" speed="22.22" length="0.30" width="3.75" shape="606.60,545.64 606.84,545.46"/>
    <lane id=":6.5_0_1" index="1" disallow="pedestrian tram rail_urban rail rail_electric rail_fast ship" speed="22.22" length="0.30" width="3.75" shape="608.81,548.67 609.05,548.49"/>
    <lane id=":6.5_0_2" index="2" disallow="pedestrian tram rail_urban rail rail_electric rail_fast ship" speed="22.22" length="0.30" width="3.75" shape="611.01,551.70 611.25,551.52"/>
  </edge>
  <edge id=":7_0" function="internal">
    <lane id=":7_0_0" index="0" disallow="pedestrian tram rail_urban rail rail_electric rail_fast ship" speed="11.11" length="67.71" width="3.75" shape="851.23,804.70,14.05 852.02,816.66,14.06 853.64,838.47,14.07 855.35,860.27,14.08 856.40,872.21,14.09"/>
  </edge>
  <edge id=":7_1" function="internal">
    <lane id=":7_1_0" index="0" disallow="pedestrian tram rail_urban rail rail_electric rail_fast ship" speed="13.89" length="67.43" width="3.75" shape="847.34,805.38,13.98 856.40,872.21,14.09"/>
  </edge>
  <edge id=":9.8_0" function="internal">
    <lane id=":9.8_0_0" index="0" disallow="pedestrian tram rail_urban rail rail_electric rail_fast ship" speed="22.22" length="0.30" width="3.75" shape="636.72,793.98,20.00 636.91,794.21,20.00"/>
    <lane id=":9.8_0_1" index="1" disallow="pedestrian tram rail_urban rail rail_electric rail_fast ship" speed="22.22" length="0.30" width="3.75" shape="633.80,796.33,20.00 633.99,796.57,20.00"/>
    <lane id=":9.8_0_2" index="2" disallow="pedestrian tram rail_urban rail rail_electric rail_fast ship" speed="22.22" length="0.30" width="3.75" shape="630.88,798.69,20.00 631.07,798.92,20.00"/>
  </edge>
  <edge id="-0" from="0.begin" to="0" priority="1" type="driving" shape="1168.54,216.37 1167.42,217.05 1166.28,217.75 1165.12,218.46 1163.93,219.18 1162.71,219.92 1161.48,220.67 1160.21,221.43 1158.93,222.21 1157.62,222.99 1156.29,223.79 1154.93,224.60 1153.56,225.43 1152.15,226.26 1150.73,227.11 1149.29,227.97 1147.82,228.84 1146.33,229.73 1144.82,230.62 1143.29,231.53 1141.73,232.45 1140.16,233.38 1138.56,234.32 1136.94,235.27 1135.30,236.24 1133.64,237.21 1131.97,238.20 1130.27,239.20 1128.55,240.21 1126.81,241.23 1125.05,242.26 1123.27,243.30 1121.47,244.35 1119.65,245.41 1117.82,246.49 1115.96,247.57 1114.09,248.66 1112.20,249.77 1110.29,250.88 1108.36,252.01 1106.42,253.14 1104.45,254.28 1102.47,255.44 1100.47,256.60 1098.46,257.77 1096.42,258.96 1094.37,260.15 1092.31,261.35 1090.23,262.56 1088.13,263.78 1086.01,265.01 1083.88,266.25 1081.73,267.49 1079.57,268.75 1077.39,270.02 1075.20,271.29">
    <lane id="-0_0" index="0" disallow="pedestrian tram rail_urban rail rail_electric rail_fast ship" speed="22.22" length="104.42" width="3.75" shape="1173.44,224.36 1172.32,225.05 1171.17,225.75 1169.99,226.47 1168.79,227.20 1167.57,227.94 1166.32,228.69 1165.05,229.46 1163.76,230.24 1162.45,231.03 1161.11,231.83 1159.75,232.65 1158.36,233.48 1156.96,234.31 1155.53,235.17 1154.08,236.03 1152.61,236.90 1151.11,237.79 1149.60,238.69 1148.06,239.60 1146.50,240.52 1144.92,241.45 1143.32,242.40 1141.70,243.35 1140.06,244.32 1138.40,245.30 1136.71,246.29 1135.01,247.28 1133.29,248.30 1131.55,249.32 1129.79,250.35 1128.01,251.39 1126.21,252.44 1124.39,253.51 1122.55,254.58 1120.69,255.67 1118.82,256.76 1116.92,257.87 1115.01,258.98 1113.08,260.11 1111.14,261.24 1109.17,262.38 1107.19,263.54 1105.19,264.70 1103.17,265.88 1101.14,267.06 1099.09,268.25 1097.02,269.45 1094.94,270.67 1092.84,271.89 1090.72,273.12 1088.59,274.35 1086.44,275.60 1084.28,276.86 1083.37,277.38" type="driving"/>
    <lane id="-0_1" index="1" disallow="pedestrian tram rail_urban rail rail_electric rail_fast ship" speed="22.22" length="104.42" width="3.75" shape="1171.48,221.17 1170.36,221.85 1169.21,222.55 1168.04,223.27 1166.85,223.99 1165.63,224.73 1164.38,225.48 1163.12,226.25 1161.83,227.03 1160.52,227.81 1159.18,228.62 1157.82,229.43 1156.44,230.26 1155.04,231.09 1153.61,231.94 1152.16,232.81 1150.69,233.68 1149.20,234.56 1147.68,235.46 1146.15,236.37 1144.59,237.29 1143.01,238.22 1141.42,239.17 1139.80,240.12 1138.16,241.09 1136.50,242.06 1134.81,243.05 1133.11,244.05 1131.39,245.06 1129.65,246.08 1127.89,247.11 1126.11,248.15 1124.31,249.21 1122.49,250.27 1120.66,251.34 1118.80,252.43 1116.93,253.52 1115.03,254.63 1113.12,255.74 1111.19,256.87 1109.25,258.00 1107.28,259.14 1105.30,260.30 1103.30,261.46 1101.29,262.64 1099.25,263.82 1097.20,265.01 1095.14,266.21 1093.05,267.42 1090.95,268.64 1088.84,269.87 1086.71,271.11 1084.56,272.36 1082.40,273.61 1081.49,274.14" type="driving"/>
    <lane id="-0_2" index="2" disallow="pedestrian tram rail_urban rail rail_electric rail_fast ship" speed="22.22" length="104.42" width="3.75" shape="1169.52,217.97 1168.40,218.65 1167.26,219.35 1166.09,220.06 1164.90,220.79 1163.68,221.52 1162.44,222.27 1161.18,223.04 1159.90,223.81 1158.59,224.60 1157.25,225.40 1155.90,226.21 1154.52,227.04 1153.12,227.87 1151.69,228.72 1150.24,229.58 1148.78,230.46 1147.29,231.34 1145.77,232.24 1144.24,233.14 1142.69,234.06 1141.11,234.99 1139.51,235.94 1137.89,236.89 1136.25,237.85 1134.59,238.83 1132.91,239.82 1131.21,240.82 1129.49,241.83 1127.76,242.85 1126.00,243.88 1124.22,244.92 1122.42,245.97 1120.60,247.03 1118.76,248.11 1116.91,249.19 1115.04,250.28 1113.14,251.39 1111.23,252.50 1109.31,253.63 1107.36,254.76 1105.40,255.90 1103.41,257.06 1101.42,258.22 1099.40,259.39 1097.37,260.58 1095.32,261.77 1093.25,262.97 1091.17,264.18 1089.07,265.40 1086.95,266.63 1084.82,267.87 1082.68,269.12 1080.51,270.37 1079.61,270.90" type="driving"/>
  </edge>
  <edge id="-1" from="0" to="2.1" priority="1" type="driving" shape="1075.20,271.29 1073.76,272.12 1072.32,272.96 1070.87,273.80 1069.41,274.65 1067.95,275.50 1066.48,276.35 1065.01,277.21 1063.53,278.07 1062.04,278.93 1060.55,279.79 1059.05,280.66 1057.55,281.54 1056.04,282.41 1054.52,283.29 1053.00,284.18 1051.47,285.07 1049.94,285.96 1048.40,286.85 1046.86,287.75 1045.31,288.65 1043.76,289.55 1042.20,290.45 1040.63,291.36 1039.06,292.28 1037.49,293.19 1035.90,294.11 1034.32,295.03 1032.73,295.96 1031.13,296.89 1029.53,297.82 1027.92,298.75 1026.31,299.69 1024.70,300.63 1023.08,301.57 1021.45,302.52 1019.82,303.47 1018.19,304.42 1016.55,305.37 1014.91,306.33 1013.26,307.29 1011.61,308.25 1009.95,309.22 1008.29,310.19 1006.62,311.16 1004.95,312.13 1003.28,313.11 1001.60,314.08 999.92,315.07 998.23,316.05 996.54,317.04 994.85,318.03 993.15,319.02 991.45,320.01 989.74,321.01 988.03,322.01 986.32,323.01 984.60,324.01 982.88,325.02 981.16,326.03 979.43,327.04 977.70,328.05 975.97,329.07 974.23,330.08 972.49,331.10 970.74,332.13 969.00,333.15 967.25,334.18 965.49,335.21 963.74,336.24 961.98,337.27 960.21,338.30 958.45,339.34 956.68,340.38 954.91,341.42 953.14,342.47 951.36,343.51 949.58,344.56 947.80,345.61 946.01,346.66 944.23,347.71 942.44,348.76 940.64,349.82 938.85,350.88 937.05,351.94 935.26,353.00 933.45,354.06 931.65,355.13 929.85,356.20 928.04,357.27 926.23,358.34 924.42,359.41 922.60,360.48 920.79,361.56 918.97,362.63 917.15,363.71 915.33,364.79 913.51,365.87 911.69,366.95 909.86,368.04 908.03,369.12 906.20,370.21 904.37,371.30 902.54,372.39 900.71,373.48 898.88,374.57 897.04,375.66 895.20,376.76 893.37,377.86 891.53,378.95 889.69,380.05 887.85,381.15 886.01,382.25 884.16,383.35 882.32,384.46 880.48,385.56 878.63,386.67 876.79,387.77 874.94,388.88 873.09,389.99 871.24,391.10 869.40,392.21 867.55,393.32 865.70,394.43 863.85,395.54 862.00,396.66 860.15,397.77 858.30,398.89 856.45,400.00 854.60,401.12 852.75,402.24 850.90,403.35 849.05,404.47 847.20,405.59 845.35,406.71 843.50,407.83 841.65,408.96 839.80,410.08 837.95,411.20 836.10,412.32 834.25,413.45 832.40,414.57 830.56,415.70 828.71,416.82 826.86,417.95 825.02,419.07 823.17,420.20 821.33,421.33 819.49,422.45 817.64,423.58 815.80,424.71 813.96,425.84 812.12,426.96 810.29,428.09 808.45,429.22 806.61,430.35 804.78,431.48 802.94,432.61 801.11,433.74 799.28,434.86 797.45,435.99 795.62,437.12 793.80,438.25 791.97,439.38 790.15,440.51 788.33,441.64 786.51,442.77 784.69,443.90 782.87,445.03 781.06,446.16 779.24,447.28 777.43,448.41 775.62,449.54 773.82,450.67 772.01,451.80 770.21,452.92 768.41,454.05 766.61,455.18 764.81,456.30 763.02,457.43 761.23,458.55 759.44,459.68 757.65,460.80 755.87,461.93 754.09,463.05 752.31,464.18 750.54,465.30 748.76,466.42 746.99,467.54 745.22,468.66 743.46,469.78 741.70,470.90 739.94,472.02 738.18,473.14 736.43,474.26 734.68,475.37 732.94,476.49 731.19,477.61 729.45,478.72 727.72,479.83 725.98,480.95 724.25,482.06 722.53,483.17 720.80,484.28 719.09,485.39 717.37,486.50 715.66,487.60 713.95,488.71 712.25,489.82 710.54,490.92 708.85,492.02 707.16,493.12 705.47,494.23 703.78,495.33 702.10,496.42 700.42,497.52 698.75,498.62 697.08,499.71 695.42,500.81 693.76,501.90 692.10,502.99 690.45,504.08 688.81,505.17 687.16,506.25 685.53,507.34 683.89,508.42 682.26,509.51 680.64,510.59 679.02,511.67 677.41,512.74 675.80,513.82 674.19,514.90 672.59,515.97 671.00,517.04 669.41,518.11 667.83,519.18 666.25,520.25 664.67,521.31 663.10,522.38 661.54,523.44 659.98,524.50 658.43,525.56 656.88,526.61 655.34,527.67 653.80,528.72 652.27,529.77 650.75,530.82 649.23,531.87 647.71,532.91 646.21,533.96 644.70,535.00 643.21,536.04 641.72,537.07 640.23,538.11 638.75,539.14 637.28,540.17 635.82,541.20 634.36,542.23 632.90,543.25 631.45,544.28 630.01,545.30 628.58,546.31 627.15,547.33 625.73,548.34 624.31,549.35 622.90,550.36 621.50,551.37 620.10,552.37 618.71,553.37 617.33,554.37 615.96,555.37 614.59,556.36">
    <lane id="-1_0" index="0" disallow="pedestrian tram rail_urban rail rail_electric rail_fast ship" speed="22.22" length="497.01" width="3.75" shape="1041.72,301.57 1040.62,302.22 1039.03,303.14 1037.44,304.06 1035.84,304.99 1034.24,305.92 1032.64,306.86 1031.03,307.79 1029.41,308.73 1027.79,309.67 1026.17,310.62 1024.54,311.57 1022.91,312.52 1021.27,313.47 1019.62,314.43 1017.98,315.39 1016.32,316.35 1014.67,317.32 1013.01,318.28 1011.34,319.26 1009.67,320.23 1008.00,321.20 1006.32,322.18 1004.64,323.16 1002.96,324.15 1001.27,325.13 999.58,326.12 997.88,327.11 996.18,328.11 994.47,329.10 992.76,330.10 991.05,331.10 989.34,332.10 987.62,333.11 985.89,334.12 984.17,335.13 982.44,336.14 980.70,337.16 978.97,338.17 977.23,339.19 975.49,340.21 973.74,341.24 971.99,342.26 970.24,343.29 968.48,344.32 966.72,345.35 964.96,346.39 963.20,347.42 961.43,348.46 959.66,349.50 957.89,350.55 956.11,351.59 954.33,352.64 952.55,353.68 950.77,354.73 948.99,355.79 947.20,356.84 945.41,357.90 943.61,358.95 941.82,360.01 940.02,361.07 938.22,362.14 936.42,363.20 934.62,364.27 932.81,365.33 931.00,366.40 929.19,367.48 927.38,368.55 925.57,369.62 923.75,370.70 921.93,371.77 920.11,372.85 918.29,373.93 916.47,375.02 914.65,376.10 912.82,377.18 911.00,378.27 909.17,379.36 907.34,380.44 905.51,381.53 903.67,382.63 901.84,383.72 900.01,384.81 898.17,385.91 896.33,387.00 894.50,388.10 892.66,389.20 890.82,390.30 888.98,391.40 887.13,392.50 885.29,393.60 883.45,394.71 881.61,395.81 879.76,396.92 877.92,398.03 876.07,399.13 874.22,400.24 872.38,401.35 870.53,402.46 868.68,403.57 866.84,404.69 864.99,405.80 863.14,406.91 861.29,408.03 859.45,409.14 857.60,410.26 855.75,411.38 853.90,412.49 852.05,413.61 850.21,414.73 848.36,415.85 846.51,416.97 844.66,418.09 842.82,419.21 840.97,420.34 839.12,421.46 837.28,422.58 835.43,423.70 833.59,424.83 831.75,425.95 829.90,427.08 828.06,428.20 826.22,429.32 824.38,430.45 822.54,431.58 820.70,432.70 818.86,433.83 817.03,434.95 815.19,436.08 813.36,437.21 811.52,438.33 809.69,439.46 807.86,440.59 806.03,441.72 804.20,442.84 802.38,443.97 800.55,445.10 798.73,446.23 796.90,447.35 795.08,448.48 793.27,449.61 791.45,450.73 789.63,451.86 787.82,452.99 786.01,454.12 784.20,455.24 782.39,456.37 780.59,457.49 778.78,458.62 776.98,459.75 775.18,460.87 773.38,462.00 771.59,463.12 769.80,464.24 768.01,465.37 766.22,466.49 764.43,467.61 762.65,468.74 760.87,469.86 759.09,470.98 757.32,472.10 755.55,473.22 753.78,474.34 752.01,475.46 750.25,476.58 748.49,477.70 746.73,478.81 744.97,479.93 743.22,481.05 741.47,482.16 739.73,483.27 737.99,484.39 736.25,485.50 734.51,486.61 732.78,487.72 731.05,488.83 729.33,489.94 727.60,491.05 725.89,492.16 724.17,493.26 722.46,494.37 720.75,495.47 719.05,496.58 717.35,497.68 715.65,498.78 713.96,499.88 712.27,500.98 710.59,502.08 708.91,503.17 707.23,504.27 705.56,505.36 703.89,506.46 702.23,507.55 700.57,508.64 698.92,509.73 697.26,510.81 695.62,511.90 693.98,512.99 692.34,514.07 690.71,515.15 689.08,516.23 687.46,517.31 685.84,518.39 684.23,519.46 682.62,520.54 681.01,521.61 679.42,522.68 677.82,523.75 676.23,524.82 674.65,525.89 673.07,526.95 671.50,528.01 669.93,529.08 668.37,530.13 666.81,531.19 665.26,532.25 663.71,533.30 662.17,534.35 660.64,535.40 659.11,536.45 657.58,537.50 656.06,538.54 654.55,539.59 653.04,540.63 651.54,541.66 650.05,542.70 648.56,543.73 647.08,544.77 645.60,545.80 644.13,546.82 642.66,547.85 641.20,548.87 639.75,549.89 638.30,550.91 636.87,551.93 635.43,552.94 634.00,553.96 632.58,554.97 631.17,555.97 629.76,556.98 628.36,557.98 626.97,558.98 625.58,559.98 624.20,560.97 622.83,561.97 621.46,562.96 620.22,563.86" type="driving"/>
    <lane id="-1_1" index="1" disallow="pedestrian tram rail_urban rail rail_electric rail_fast ship" speed="22.22" length="497.01" width="3.75" shape="1039.84,298.33 1038.73,298.97 1037.15,299.90 1035.55,300.82 1033.96,301.75 1032.36,302.68 1030.75,303.61 1029.14,304.55 1027.53,305.49 1025.91,306.43 1024.28,307.38 1022.65,308.33 1021.02,309.28 1019.38,310.23 1017.74,311.19 1016.09,312.15 1014.44,313.11 1012.78,314.08 1011.12,315.04 1009.45,316.02 1007.79,316.99 1006.11,317.96 1004.43,318.94 1002.75,319.92 1001.07,320.91 999.38,321.89 997.68,322.88 995.99,323.87 994.29,324.87 992.58,325.86 990.87,326.86 989.16,327.86 987.44,328.87 985.72,329.87 984.00,330.88 982.27,331.89 980.54,332.90 978.81,333.92 977.07,334.94 975.33,335.96 973.59,336.98 971.84,338.00 970.09,339.03 968.34,340.06 966.58,341.09 964.83,342.12 963.06,343.15 961.30,344.19 959.53,345.23 957.76,346.27 955.99,347.31 954.21,348.36 952.43,349.40 950.65,350.45 948.87,351.50 947.08,352.56 945.29,353.61 943.50,354.67 941.71,355.72 939.91,356.78 938.11,357.84 936.31,358.91 934.51,359.97 932.71,361.04 930.90,362.11 929.09,363.18 927.28,364.25 925.47,365.32 923.66,366.40 921.84,367.47 920.02,368.55 918.20,369.63 916.38,370.71 914.56,371.79 912.73,372.87 910.91,373.96 909.08,375.05 907.25,376.13 905.42,377.22 903.59,378.31 901.75,379.40 899.92,380.50 898.09,381.59 896.25,382.69 894.41,383.78 892.57,384.88 890.73,385.98 888.89,387.08 887.05,388.18 885.21,389.28 883.37,390.39 881.52,391.49 879.68,392.60 877.83,393.70 875.99,394.81 874.14,395.92 872.29,397.03 870.45,398.14 868.60,399.25 866.75,400.36 864.90,401.47 863.05,402.59 861.20,403.70 859.36,404.82 857.51,405.93 855.66,407.05 853.81,408.17 851.96,409.29 850.11,410.41 848.26,411.52 846.41,412.64 844.57,413.77 842.72,414.89 840.87,416.01 839.02,417.13 837.18,418.25 835.33,419.38 833.48,420.50 831.64,421.62 829.79,422.75 827.95,423.87 826.11,425.00 824.26,426.13 822.42,427.25 820.58,428.38 818.74,429.50 816.90,430.63 815.06,431.76 813.23,432.89 811.39,434.01 809.56,435.14 807.73,436.27 805.89,437.40 804.06,438.52 802.23,439.65 800.41,440.78 798.58,441.91 796.75,443.04 794.93,444.16 793.11,445.29 791.29,446.42 789.47,447.55 787.65,448.68 785.84,449.80 784.03,450.93 782.22,452.06 780.41,453.19 778.60,454.31 776.80,455.44 774.99,456.57 773.19,457.69 771.39,458.82 769.60,459.94 767.80,461.07 766.01,462.19 764.22,463.32 762.44,464.44 760.65,465.56 758.87,466.69 757.09,467.81 755.32,468.93 753.54,470.05 751.77,471.17 750.00,472.29 748.24,473.41 746.48,474.53 744.72,475.65 742.96,476.77 741.21,477.88 739.46,479.00 737.71,480.11 735.97,481.23 734.23,482.34 732.49,483.46 730.75,484.57 729.02,485.68 727.30,486.79 725.57,487.90 723.85,489.01 722.14,490.11 720.42,491.22 718.71,492.33 717.01,493.43 715.31,494.53 713.61,495.64 711.92,496.74 710.23,497.84 708.54,498.94 706.86,500.03 705.18,501.13 703.51,502.23 701.84,503.32 700.17,504.41 698.51,505.51 696.85,506.60 695.20,507.68 693.55,508.77 691.91,509.86 690.27,510.94 688.64,512.03 687.01,513.11 685.38,514.19 683.76,515.27 682.14,516.35 680.53,517.42 678.93,518.50 677.33,519.57 675.73,520.64 674.14,521.71 672.55,522.78 670.97,523.84 669.40,524.91 667.83,525.97 666.26,527.03 664.70,528.09 663.15,529.15 661.60,530.20 660.06,531.26 658.52,532.31 656.99,533.36 655.46,534.41 653.94,535.45 652.42,536.50 650.91,537.54 649.41,538.58 647.91,539.62 646.42,540.66 644.93,541.69 643.45,542.72 641.98,543.75 640.51,544.78 639.05,545.80 637.59,546.83 636.14,547.85 634.70,548.87 633.26,549.88 631.83,550.90 630.41,551.91 628.99,552.92 627.58,553.93 626.18,554.93 624.78,555.94 623.39,556.94 622.01,557.93 620.63,558.93 619.26,559.92 618.02,560.82" type="driving"/>