<?xml version='1.0' encoding='UTF-8'?>
<!-- generated on 2022-09-06 05:05:53 by Eclipse SUMO netconvert Version 1.13.0
<configuration xmlns:xsi="http://www.w3.org/2001/XMLSchema-instance" xsi:noNamespaceSchemaLocation="http://sumo.dlr.de/xsd/netconvertConfiguration.xsd">

    <input>
        <opendrive-files value="map\17\26324522\26324522.xodr"/>
    </input>

    <output>
        <output-file value="C:\Users\LinGe\AppData\Local\Temp\tmp_q94kb1n\26324522.net.xml"/>
    </output>

    <processing>
        <geometry.max-grade.fix value="false"/>
    </processing>

    <tls_building>
        <tls.left-green.time value="0"/>
    </tls_building>

    <junctions>
        <rectangular-lane-cut value="true"/>
    </junctions>

    <report>
        <aggregate-warnings value="5"/>
    </report>

</configuration>
-->
<net xmlns:xsi="http://www.w3.org/2001/XMLSchema-instance" version="1.9" junctionCornerDetail="5" rectangularLaneCut="true" limitTurnSpeed="5.50" xsi:noNamespaceSchemaLocation="http://sumo.dlr.de/xsd/net_file.xsd">
  <location netOffset="1.56,101.26" convBoundary="0.00,0.00,1102.73,1302.51" origBoundary="-1.56,-101.26,1101.18,1201.26" projParameter="!"/>
  <type id="bidirectional" priority="1" speed="1.39" disallow="pedestrian tram rail_urban rail rail_electric rail_fast ship" width="3.65"/>
  <type id="border" priority="0" speed="1.39" disallow="all" discard="1" width="0.10"/>
  <type id="driving" priority="1" speed="13.89" disallow="pedestrian tram rail_urban rail rail_electric rail_fast ship" width="3.65"/>
  <type id="entry" priority="1" speed="22.22" disallow="pedestrian tram rail_urban rail rail_electric rail_fast ship" width="3.65"/>
  <type id="exit" priority="1" speed="22.22" disallow="pedestrian tram rail_urban rail rail_electric rail_fast ship" width="3.65"/>
  <type id="median" priority="0" speed="1.39" disallow="all" discard="1" width="0.10"/>
  <type id="mwyEntry" priority="1" speed="22.22" allow="private emergency authority army vip passenger hov taxi bus coach delivery truck trailer motorcycle evehicle custom1 custom2" width="3.65"/>
  <type id="mwyExit" priority="1" speed="22.22" allow="private emergency authority army vip passenger hov taxi bus coach delivery truck trailer motorcycle evehicle custom1 custom2" width="3.65"/>
  <type id="none" priority="0" speed="1.39" disallow="all" discard="1" width="1.00"/>
  <type id="offRamp" priority="1" speed="22.22" allow="private emergency authority army vip passenger hov taxi bus coach delivery truck trailer motorcycle evehicle custom1 custom2" width="3.65"/>
  <type id="onRamp" priority="1" speed="22.22" allow="private emergency authority army vip passenger hov taxi bus coach delivery truck trailer motorcycle evehicle custom1 custom2" width="3.65"/>
  <type id="parking" priority="1" speed="1.39" disallow="pedestrian tram rail_urban rail rail_electric rail_fast ship" width="2.50"/>
  <type id="rail" priority="3" speed="33.33" allow="rail_urban rail rail_electric rail_fast" width="3.65"/>
  <type id="restricted" priority="0" speed="13.89" disallow="all" width="3.65"/>
  <type id="roadWorks" priority="0" speed="1.39" allow="authority" width="3.65"/>
  <type id="shoulder" priority="0" speed="1.39" disallow="all" discard="1" width="1.00"/>
  <type id="special1" priority="1" speed="22.22" allow="custom1" discard="1" width="3.65"/>
  <type id="special2" priority="1" speed="22.22" allow="custom2" discard="1" width="3.65"/>
  <type id="special3" priority="1" speed="22.22" allow="custom1 custom2" discard="1" width="3.65"/>
  <type id="stop" priority="1" speed="13.89" disallow="pedestrian tram rail_urban rail rail_electric rail_fast ship" width="3.65"/>
  <type id="tram" priority="2" speed="13.89" allow="tram" width="3.65"/>
  <edge id=":0_0" function="internal">
    <lane id=":0_0_0" index="0" disallow="pedestrian tram rail_urban rail rail_electric rail_fast ship" speed="16.67" length="126.32" width="3.75" shape="1017.78,288.11 924.80,373.63"/>
  </edge>
  <edge id=":0_1" function="internal">
    <lane id=":0_1_0" index="0" disallow="pedestrian tram rail_urban rail rail_electric rail_fast ship" speed="22.22" length="126.41" width="3.75" shape="1017.78,288.11 922.05,370.68"/>
    <lane id=":0_1_1" index="1" disallow="pedestrian tram rail_urban rail rail_electric rail_fast ship" speed="22.22" length="126.41" width="3.75" shape="1015.33,285.28 919.60,367.84"/>
    <lane id=":0_1_2" index="2" disallow="pedestrian tram rail_urban rail rail_electric rail_fast ship" speed="22.22" length="126.41" width="3.75" shape="1012.87,282.44 917.16,365.00"/>
  </edge>
  <edge id=":1_0" function="internal">
    <lane id=":1_0_0" index="0" disallow="pedestrian tram rail_urban rail rail_electric rail_fast ship" speed="22.22" length="24.82" width="3.75" shape="209.49,874.53 216.50,870.05,0.03 221.68,865.70,0.06 225.35,861.69,0.09 227.87,858.22,0.10"/>
  </edge>
  <edge id=":1_1" function="internal">
    <lane id=":1_1_0" index="0" disallow="pedestrian tram rail_urban rail rail_electric rail_fast ship" speed="22.22" length="25.25" width="3.75" shape="209.49,874.53 231.51,862.22"/>
    <lane id=":1_1_1" index="1" disallow="pedestrian tram rail_urban rail rail_electric rail_fast ship" speed="22.22" length="25.25" width="3.75" shape="211.31,877.81 233.35,865.49"/>
    <lane id=":1_1_2" index="2" disallow="pedestrian tram rail_urban rail rail_electric rail_fast ship" speed="22.22" length="25.25" width="3.75" shape="213.13,881.09 235.19,868.76"/>
  </edge>
  <edge id=":10_0" function="internal">
    <lane id=":10_0_0" index="0" disallow="pedestrian tram rail_urban rail rail_electric rail_fast ship" speed="22.22" length="8.00" width="3.75" shape="734.27,952.47,20.00 739.73,958.31,20.00"/>
    <lane id=":10_0_1" index="1" disallow="pedestrian tram rail_urban rail rail_electric rail_fast ship" speed="22.22" length="8.00" width="3.75" shape="731.53,955.03,20.00 736.99,960.87,20.00"/>
    <lane id=":10_0_2" index="2" disallow="pedestrian tram rail_urban rail rail_electric rail_fast ship" speed="22.22" length="8.00" width="3.75" shape="728.79,957.59,20.00 734.25,963.44,20.00"/>
  </edge>
  <edge id=":10_3" function="internal">
    <lane id=":10_3_0" index="0" disallow="pedestrian tram rail_urban rail rail_electric rail_fast ship" speed="22.22" length="7.99" width="3.75" shape="734.26,952.48,20.00 739.73,958.31,20.00"/>
  </edge>
  <edge id=":11_0" function="internal">
    <lane id=":11_0_0" index="0" disallow="pedestrian tram rail_urban rail rail_electric rail_fast ship" speed="19.44" length="108.18" width="3.75" shape="376.52,771.45,0.00 391.08,762.86,0.00 419.67,745.51,0.00 449.70,726.94,0.00 468.60,714.69"/>
  </edge>
  <edge id=":11_1" function="internal">
    <lane id=":11_1_0" index="0" disallow="pedestrian tram rail_urban rail rail_electric rail_fast ship" speed="22.22" length="108.06" width="3.75" shape="379.06,774.77 468.60,714.69"/>
    <lane id=":11_1_1" index="1" disallow="pedestrian tram rail_urban rail rail_electric rail_fast ship" speed="22.22" length="108.06" width="3.75" shape="381.06,777.94 470.79,717.73"/>
    <lane id=":11_1_2" index="2" disallow="pedestrian tram rail_urban rail rail_electric rail_fast ship" speed="22.22" length="108.06" width="3.75" shape="383.07,781.11 472.98,720.78"/>
  </edge>
  <edge id=":11.10_0" function="internal">
    <lane id=":11.10_0_0" index="0" disallow="pedestrian tram rail_urban rail rail_electric rail_fast ship" speed="22.22" length="0.30" width="3.75" shape="546.59,741.63,20.00 546.78,741.86,20.00"/>
    <lane id=":11.10_0_1" index="1" disallow="pedestrian tram rail_urban rail rail_electric rail_fast ship" speed="22.22" length="0.30" width="3.75" shape="543.68,743.98,20.00 543.86,744.22,20.00"/>
    <lane id=":11.10_0_2" index="2" disallow="pedestrian tram rail_urban rail rail_electric rail_fast ship" speed="22.22" length="0.30" width="3.75" shape="540.76,746.34,20.00 540.95,746.58,20.00"/>
  </edge>
  <edge id=":16.15_0" function="internal">
    <lane id=":16.15_0_0" index="0" disallow="pedestrian tram rail_urban rail rail_electric rail_fast ship" speed="22.22" length="0.30" width="3.75" shape="529.08,756.16,20.00 528.89,755.92,20.00"/>
    <lane id=":16.15_0_1" index="1" disallow="pedestrian tram rail_urban rail rail_electric rail_fast ship" speed="22.22" length="0.30" width="3.75" shape="532.00,753.80,20.00 531.81,753.57,20.00"/>
    <lane id=":16.15_0_2" index="2" disallow="pedestrian tram rail_urban rail rail_electric rail_fast ship" speed="22.22" length="0.30" width="3.75" shape="534.92,751.44,20.00 534.73,751.21,20.00"/>
  </edge>
  <edge id=":2_0" function="internal">
    <lane id=":2_0_0" index="0" disallow="pedestrian tram rail_urban rail rail_electric rail_fast ship" speed="19.44" length="72.19" width="3.75" shape="107.26,132.08,20.00 117.41,145.59,20.00 131.62,163.60,20.00 144.85,180.00,20.00 152.07,188.67,20.00"/>
  </edge>
  <edge id=":2_1" function="internal">
    <lane id=":2_1_0" index="0" disallow="pedestrian tram rail_urban rail rail_electric rail_fast ship" speed="22.22" length="72.33" width="3.75" shape="107.26,132.08,20.00 148.74,191.33,20.00"/>
    <lane id=":2_1_1" index="1" disallow="pedestrian tram rail_urban rail rail_electric rail_fast ship" speed="22.22" length="72.33" width="3.75" shape="104.19,134.22,20.00 145.67,193.48,20.00"/>
    <lane id=":2_1_2" index="2" disallow="pedestrian tram rail_urban rail rail_electric rail_fast ship" speed="22.22" length="72.33" width="3.75" shape="101.12,136.37,20.00 142.60,195.63,20.00"/>
  </edge>
  <edge id=":2.1_0" function="internal">
    <lane id=":2.1_0_0" index="0" disallow="pedestrian tram rail_urban rail rail_electric rail_fast ship" speed="22.22" length="0.30" width="3.75" shape="488.19,728.60 487.95,728.77"/>
    <lane id=":2.1_0_1" index="1" disallow="pedestrian tram rail_urban rail rail_electric rail_fast ship" speed="22.22" length="0.30" width="3.75" shape="485.99,725.56 485.74,725.74"/>
    <lane id=":2.1_0_2" index="2" disallow="pedestrian tram rail_urban rail rail_electric rail_fast ship" speed="22.22" length="0.30" width="3.75" shape="483.78,722.53 483.54,722.71"/>
  </edge>
  <edge id=":20.19_0" function="internal">
    <lane id=":20.19_0_0" index="0" disallow="pedestrian tram rail_urban rail rail_electric rail_fast ship" speed="8.33" length="0.30" width="3.75" shape="468.47,905.84,7.93 468.19,905.76,7.92"/>
  </edge>
  <edge id=":22.21_0" function="internal">
    <lane id=":22.21_0_0" index="0" disallow="pedestrian tram rail_urban rail rail_electric rail_fast ship" speed="16.67" length="0.30" width="3.75" shape="508.21,311.75,10.29 508.50,311.80,10.28"/>
  </edge>
  <edge id=":25.24_0" function="internal">
    <lane id=":25.24_0_0" index="0" disallow="pedestrian tram rail_urban rail rail_electric rail_fast ship" speed="11.11" length="0.30" width="3.75" shape="735.06,732.13,10.57 735.03,732.43,10.58"/>
  </edge>
  <edge id=":27.26_0" function="internal">
    <lane id=":27.26_0_0" index="0" disallow="pedestrian tram rail_urban rail rail_electric rail_fast ship" speed="9.72" length="0.30" width="3.75" shape="544.10,647.84,14.63 543.81,647.77,14.64"/>
  </edge>
  <edge id=":29.28_0" function="internal">
    <lane id=":29.28_0_0" index="0" disallow="pedestrian tram rail_urban rail rail_electric rail_fast ship" speed="22.22" length="0.29" width="3.75" shape="326.77,735.80,5.91 327.06,735.85,5.92"/>
  </edge>
  <edge id=":3_0" function="internal">
    <lane id=":3_0_0" index="0" disallow="pedestrian tram rail_urban rail rail_electric rail_fast ship" speed="15.28" length="41.05" width="3.75" shape="930.99,1191.99,20.00 922.25,1183.74,19.98 912.87,1175.89,19.95 904.68,1169.51,19.93 899.54,1165.67,19.92"/>
  </edge>
  <edge id=":3_1" function="internal">
    <lane id=":3_1_0" index="0" disallow="pedestrian tram rail_urban rail rail_electric rail_fast ship" speed="22.22" length="41.15" width="3.75" shape="930.99,1191.99,20.00 902.43,1162.35,20.00"/>
    <lane id=":3_1_1" index="1" disallow="pedestrian tram rail_urban rail rail_electric rail_fast ship" speed="22.22" length="41.15" width="3.75" shape="933.68,1189.39,20.00 905.14,1159.75,20.00"/>
    <lane id=":3_1_2" index="2" disallow="pedestrian tram rail_urban rail rail_electric rail_fast ship" speed="22.22" length="41.15" width="3.75" shape="936.38,1186.78,20.00 907.84,1157.15,20.00"/>
  </edge>
  <edge id=":31.30_0" function="internal">
    <lane id=":31.30_0_0" index="0" disallow="pedestrian tram rail_urban rail rail_electric rail_fast ship" speed="16.67" length="0.30" width="3.75" shape="63.65,713.84,9.00 63.77,714.11,8.99"/>
  </edge>
  <edge id=":4_0" function="internal">
    <lane id=":4_0_0" index="0" disallow="pedestrian tram rail_urban rail rail_electric rail_fast ship" speed="19.44" length="7.99" width="3.75" shape="388.95,569.28,20.00 384.25,562.82,20.00"/>
  </edge>
  <edge id=":4_1" function="internal">
    <lane id=":4_1_0" index="0" disallow="pedestrian tram rail_urban rail rail_electric rail_fast ship" speed="22.22" length="4.17" width="3.75" shape="388.95,569.28,20.00 386.51,565.91,20.00"/>
    <lane id=":4_1_1" index="1" disallow="pedestrian tram rail_urban rail rail_electric rail_fast ship" speed="22.22" length="4.17" width="3.75" shape="391.99,567.09,20.00 389.55,563.71,20.00"/>
    <lane id=":4_1_2" index="2" disallow="pedestrian tram rail_urban rail rail_electric rail_fast ship" speed="22.22" length="4.17" width="3.75" shape="395.03,564.89,20.00 392.58,561.51,20.00"/>
  </edge>
  <edge id=":5_0" function="internal">
    <lane id=":5_0_0" index="0" disallow="pedestrian tram rail_urban rail rail_electric rail_fast ship" speed="15.28" length="66.53" width="3.75" shape="181.82,920.66 172.26,924.75 154.81,932.56 135.76,941.38 121.40,948.48"/>
  </edge>
  <edge id=":5_1" function="internal">
    <lane id=":5_1_0" index="0" disallow="pedestrian tram rail_urban rail rail_electric rail_fast ship" speed="22.22" length="66.14" width="3.75" shape="179.57,916.95 121.40,948.48"/>
    <lane id=":5_1_1" index="1" disallow="pedestrian tram rail_urban rail rail_electric rail_fast ship" speed="22.22" length="66.14" width="3.75" shape="177.78,913.66 119.63,945.18"/>
    <lane id=":5_1_2" index="2" disallow="pedestrian tram rail_urban rail rail_electric rail_fast ship" speed="22.22" length="66.14" width="3.75" shape="175.98,910.37 117.85,941.88"/>
  </edge>
  <edge id=":6_0" function="internal">
    <lane id=":6_0_0" index="0" disallow="pedestrian tram rail_urban rail rail_electric rail_fast ship" speed="19.44" length="33.01" width="3.75" shape="958.39,302.56,0.06 963.11,300.42,0.05 969.84,296.85,0.03 977.83,291.80,0.02 986.34,285.22"/>
  </edge>
  <edge id=":6_1" function="internal">
    <lane id=":6_1_0" index="0" disallow="pedestrian tram rail_urban rail rail_electric rail_fast ship" speed="22.22" length="32.16" width="3.75" shape="961.99,306.24 986.34,285.22"/>
    <lane id=":6_1_1" index="1" disallow="pedestrian tram rail_urban rail rail_electric rail_fast ship" speed="22.22" length="32.16" width="3.75" shape="964.44,309.08 988.79,288.06"/>
    <lane id=":6_1_2" index="2" disallow="pedestrian tram rail_urban rail rail_electric rail_fast ship" speed="22.22" length="32.16" width="3.75" shape="966.89,311.92 991.24,290.90"/>
  </edge>
  <edge id=":7_0" function="internal">
    <lane id=":7_0_0" index="0" disallow="pedestrian tram rail_urban rail rail_electric rail_fast ship" speed="16.67" length="56.77" width="3.75" shape="900.51,1121.27,19.86 905.92,1128.30,19.88 915.75,1140.63,19.92 926.99,1154.23,19.96 936.60,1165.06,20.00"/>
  </edge>
  <edge id=":7_1" function="internal">
    <lane id=":7_1_0" index="0" disallow="pedestrian tram rail_urban rail rail_electric rail_fast ship" speed="22.22" length="56.37" width="3.75" shape="897.52,1124.44,20.00 936.60,1165.06,20.00"/>
    <lane id=":7_1_1" index="1" disallow="pedestrian tram rail_urban rail rail_electric rail_fast ship" speed="22.22" length="56.37" width="3.75" shape="894.82,1127.04,20.00 933.90,1167.66,20.00"/>
    <lane id=":7_1_2" index="2" disallow="pedestrian tram rail_urban rail rail_electric rail_fast ship" speed="22.22" length="56.37" width="3.75" shape="892.11,1129.64,20.00 931.20,1170.26,20.00"/>
  </edge>
  <edge id=":7.6_0" function="internal">
    <lane id=":7.6_0_0" index="0" disallow="pedestrian tram rail_urban rail rail_electric rail_fast ship" speed="22.22" length="0.30" width="3.75" shape="474.57,710.37 474.81,710.20"/>
    <lane id=":7.6_0_1" index="1" disallow="pedestrian tram rail_urban rail rail_electric rail_fast ship" speed="22.22" length="0.30" width="3.75" shape="476.78,713.41 477.02,713.23"/>
    <lane id=":7.6_0_2" index="2" disallow="pedestrian tram rail_urban rail rail_electric rail_fast ship" speed="22.22" length="0.30" width="3.75" shape="478.98,716.44 479.22,716.26"/>
  </edge>
  <edge id=":8_0" function="internal">
    <lane id=":8_0_0" index="0" disallow="pedestrian tram rail_urban rail rail_electric rail_fast ship" speed="10.42" length="2.99" width="3.75" shape="747.74,642.28,7.47 747.05,645.20,7.52"/>
  </edge>
  <edge id=":8_1" function="internal">
    <lane id=":8_1_0" index="0" disallow="pedestrian tram rail_urban rail rail_electric rail_fast ship" speed="11.11" length="3.02" width="3.75" shape="747.74,642.28,7.47 747.03,645.21,7.57"/>
  </edge>
  <edge id=":9_0" function="internal">
    <lane id=":9_0_0" index="0" disallow="pedestrian tram rail_urban rail rail_electric rail_fast ship" speed="22.22" length="4.16" width="3.75" shape="386.39,565.75,20.00 383.95,562.37,20.00"/>
    <lane id=":9_0_1" index="1" disallow="pedestrian tram rail_urban rail rail_electric rail_fast ship" speed="22.22" length="4.16" width="3.75" shape="389.43,563.55,20.00 386.99,560.17,20.00"/>
    <lane id=":9_0_2" index="2" disallow="pedestrian tram rail_urban rail rail_electric rail_fast ship" speed="22.22" length="4.16" width="3.75" shape="392.47,561.35,20.00 390.03,557.98,20.00"/>
  </edge>
  <edge id=":9_3" function="internal">
    <lane id=":9_3_0" index="0" disallow="pedestrian tram rail_urban rail rail_electric rail_fast ship" speed="15.97" length="7.93" width="3.75" shape="388.67,568.74,20.00 383.95,562.37,20.00"/>
  </edge>
  <edge id="-0" from="0.begin" to="0" priority="1" type="driving" shape="1102.73,202.87 1101.89,203.58 1101.01,204.31 1100.12,205.06 1099.20,205.84 1098.26,206.63 1097.29,207.44 1096.31,208.28 1095.29,209.13 1094.26,210.01 1093.20,210.90 1092.12,211.82 1091.02,212.75 1089.90,213.71 1088.75,214.68 1087.58,215.68 1086.39,216.69 1085.18,217.73 1083.95,218.78 1082.69,219.85 1081.42,220.94 1080.12,222.05 1078.80,223.18 1077.47,224.32 1076.11,225.49 1074.73,226.67 1073.33,227.87 1071.91,229.09 1070.47,230.32 1069.01,231.58 1067.53,232.85 1066.03,234.14 1064.51,235.44 1062.97,236.76 1061.41,238.10 1059.84,239.46 1058.24,240.83 1056.63,242.22 1055.00,243.62 1053.35,245.04 1051.68,246.48 1049.99,247.93 1048.29,249.40 1046.56,250.89 1044.82,252.39 1043.07,253.90 1041.29,255.43 1039.50,256.98 1037.69,258.54 1035.87,260.11 1034.02,261.70 1032.16,263.31 1030.29,264.93 1028.40,266.56 1026.49,268.21 1024.57,269.87 1022.63,271.54 1020.67,273.23 1018.70,274.93 1016.71,276.64 1014.71,278.37 1012.70,280.11 1010.67,281.87 1008.62,283.63">
    <lane id="-0_0" index="0" disallow="pedestrian tram rail_urban rail rail_electric rail_fast ship" speed="22.22" length="119.92" width="3.75" shape="1108.75,210.07 1107.90,210.77 1107.04,211.50 1106.15,212.24 1105.24,213.01 1104.30,213.80 1103.34,214.61 1102.36,215.44 1101.35,216.29 1100.32,217.16 1099.27,218.05 1098.19,218.97 1097.09,219.90 1095.97,220.85 1094.83,221.82 1093.66,222.82 1092.48,223.83 1091.27,224.86 1090.04,225.91 1088.78,226.98 1087.51,228.07 1086.22,229.17 1084.90,230.30 1083.56,231.44 1082.21,232.61 1080.83,233.79 1079.43,234.99 1078.01,236.20 1076.57,237.44 1075.11,238.69 1073.63,239.96 1072.14,241.25 1070.62,242.55 1069.08,243.87 1067.53,245.21 1065.95,246.56 1064.36,247.94 1062.75,249.32 1061.11,250.73 1059.46,252.15 1057.80,253.58 1056.11,255.04 1054.41,256.51 1052.69,257.99 1050.95,259.49 1049.19,261.00 1047.42,262.53 1045.62,264.08 1043.82,265.64 1041.99,267.21 1040.15,268.80 1038.29,270.41 1036.41,272.02 1034.52,273.66 1032.62,275.30 1030.69,276.96 1028.75,278.64 1026.80,280.32 1024.83,282.03 1022.84,283.74 1020.84,285.47 1018.82,287.21 1017.78,288.11" type="driving"/>
    <lane id="-0_1" index="1" disallow="pedestrian tram rail_urban rail rail_electric rail_fast ship" speed="22.22" length="119.92" width="3.75" shape="1106.34,207.19 1105.50,207.90 1104.63,208.62 1103.74,209.37 1102.82,210.14 1101.88,210.93 1100.92,211.74 1099.94,212.57 1098.93,213.43 1097.90,214.30 1096.84,215.19 1095.76,216.11 1094.66,217.04 1093.54,217.99 1092.40,218.97 1091.23,219.96 1090.04,220.97 1088.83,222.01 1087.60,223.06 1086.35,224.13 1085.07,225.22 1083.78,226.32 1082.46,227.45 1081.12,228.60 1079.77,229.76 1078.39,230.94 1076.99,232.14 1075.57,233.36 1074.13,234.59 1072.67,235.84 1071.19,237.11 1069.69,238.40 1068.18,239.71 1066.64,241.03 1065.08,242.37 1063.51,243.72 1061.91,245.09 1060.30,246.48 1058.67,247.89 1057.02,249.31 1055.35,250.74 1053.66,252.20 1051.96,253.66 1050.24,255.15 1048.50,256.65 1046.74,258.16 1044.97,259.69 1043.17,261.24 1041.37,262.80 1039.54,264.37 1037.70,265.96 1035.84,267.57 1033.96,269.18 1032.07,270.82 1030.17,272.46 1028.24,274.12 1026.30,275.80 1024.35,277.49 1022.38,279.19 1020.39,280.90 1018.39,282.63 1016.37,284.37 1015.33,285.28" type="driving"/>
    <lane id="-0_2" index="2" disallow="pedestrian tram rail_urban rail rail_electric rail_fast ship" speed="22.22" length="119.92" width="3.75" shape="1103.94,204.31 1103.09,205.02 1102.22,205.75 1101.33,206.50 1100.41,207.27 1099.47,208.06 1098.50,208.88 1097.52,209.71 1096.51,210.56 1095.47,211.44 1094.42,212.33 1093.34,213.25 1092.24,214.18 1091.11,215.14 1089.97,216.11 1088.80,217.11 1087.61,218.12 1086.40,219.15 1085.17,220.21 1083.91,221.28 1082.64,222.37 1081.34,223.47 1080.02,224.60 1078.68,225.75 1077.33,226.91 1075.95,228.09 1074.55,229.29 1073.13,230.51 1071.69,231.75 1070.23,233.00 1068.75,234.27 1067.25,235.56 1065.73,236.86 1064.19,238.18 1062.64,239.52 1061.06,240.88 1059.47,242.25 1057.85,243.64 1056.22,245.04 1054.57,246.47 1052.90,247.90 1051.22,249.36 1049.51,250.82 1047.79,252.31 1046.05,253.81 1044.29,255.32 1042.52,256.85 1040.73,258.40 1038.92,259.96 1037.09,261.53 1035.25,263.12 1033.39,264.73 1031.51,266.35 1029.62,267.98 1027.72,269.62 1025.79,271.29 1023.85,272.96 1021.90,274.65 1019.93,276.35 1017.94,278.06 1015.94,279.79 1013.92,281.53 1012.87,282.44" type="driving"/>
  </edge>
  <edge id="-1" from="0" to="2.1" priority="1" type="driving" shape="1008.62,283.63 1007.34,284.74 1006.06,285.84 1004.78,286.95 1003.48,288.07 1002.18,289.19 1000.88,290.32 999.57,291.45 998.26,292.58 996.94,293.72 995.61,294.87 994.28,296.01 992.95,297.17 991.61,298.33 990.26,299.49 988.91,300.65 987.55,301.82 986.19,303.00 984.83,304.18 983.46,305.36 982.08,306.55 980.70,307.74 979.31,308.94 977.92,310.14 976.53,311.34 975.13,312.55 973.72,313.76 972.31,314.98 970.90,316.20 969.48,317.43 968.06,318.65 966.63,319.89 965.20,321.12 963.76,322.36 962.32,323.61 960.87,324.85 959.42,326.10 957.97,327.36 956.51,328.62 955.05,329.88 953.58,331.14 952.11,332.41 950.63,333.68 949.15,334.96 947.67,336.24 946.18,337.52 944.69,338.81 943.19,340.10 941.69,341.39 940.19,342.69 938.68,343.98 937.17,345.29 935.66,346.59 934.14,347.90 932.62,349.21 931.09,350.53 929.56,351.84 928.03,353.16 926.49,354.49 924.95,355.81 923.40,357.14 921.86,358.48 920.31,359.81 918.75,361.15 917.19,362.49 915.63,363.83 914.07,365.18 912.50,366.53 910.93,367.88 909.36,369.23 907.78,370.59 906.20,371.95 904.62,373.31 903.03,374.67 901.44,376.04 899.85,377.41 898.25,378.78 896.66,380.15 895.05,381.53 893.45,382.90 891.84,384.28 890.24,385.67 888.62,387.05 887.01,388.44 885.39,389.82 883.77,391.21 882.15,392.61 880.52,394.00 878.90,395.40 877.27,396.80 875.63,398.20 874.00,399.60 872.36,401.00 870.72,402.41 869.08,403.82 867.44,405.22 865.79,406.64 864.14,408.05 862.49,409.46 860.84,410.88 859.18,412.29 857.53,413.71 855.87,415.13 854.21,416.55 852.55,417.98 850.88,419.40 849.22,420.83 847.55,422.25 845.88,423.68 844.21,425.11 842.53,426.54 840.86,427.97 839.18,429.41 837.50,430.84 835.82,432.28 834.14,433.71 832.46,435.15 830.77,436.59 829.09,438.03 827.40,439.47 825.71,440.91 824.02,442.35 822.33,443.79 820.64,445.23 818.95,446.68 817.25,448.12 815.56,449.57 813.86,451.01 812.16,452.46 810.46,453.91 808.76,455.36 807.06,456.80 805.36,458.25 803.66,459.70 801.95,461.15 800.25,462.60 798.54,464.05 796.84,465.50 795.13,466.95 793.42,468.40 791.71,469.85 790.01,471.31 788.30,472.76 786.59,474.21 784.88,475.66 783.17,477.11 781.45,478.56 779.74,480.02 778.03,481.47 776.32,482.92 774.61,484.37 772.89,485.82 771.18,487.27 769.47,488.72 767.76,490.17 766.04,491.62 764.33,493.07 762.62,494.52 760.90,495.97 759.19,497.42 757.48,498.87 755.76,500.32 754.05,501.76 752.34,503.21 750.62,504.65 748.91,506.10 747.20,507.54 745.49,508.99 743.78,510.43 742.07,511.87 740.36,513.32 738.65,514.76 736.94,516.20 735.23,517.63 733.52,519.07 731.81,520.51 730.11,521.95 728.40,523.38 726.69,524.81 724.99,526.25 723.28,527.68 721.58,529.11 719.88,530.54 718.18,531.97 716.48,533.39 714.78,534.82 713.08,536.24 711.38,537.67 709.69,539.09 707.99,540.51 706.30,541.92 704.60,543.34 702.91,544.76 701.22,546.17 699.53,547.58 697.84,548.99 696.16,550.40 694.47,551.81 692.79,553.21 691.11,554.62 689.43,556.02 687.75,557.42 686.07,558.82 684.40,560.21 682.72,561.61 681.05,563.00 679.38,564.39 677.71,565.78 676.04,567.16 674.38,568.55 672.71,569.93 671.05,571.31 669.39,572.69 667.74,574.06 666.08,575.43 664.43,576.80 662.78,578.17 661.13,579.54 659.48,580.90 657.83,582.26 656.19,583.62 654.55,584.98 652.91,586.33 651.28,587.68 649.64,589.03 648.01,590.37 646.38,591.72 644.76,593.06 643.13,594.39 641.51,595.73 639.90,597.06 638.28,598.39 636.67,599.72 635.06,601.04 633.45,602.36 631.84,603.68 630.24,604.99 628.64,606.30 627.05,607.61 625.45,608.91 623.86,610.22 622.27,611.51 620.69,612.81 619.11,614.10 617.53,615.39 615.96,616.68 614.38,617.96 612.81,619.24 611.25,620.51 609.69,621.78 608.13,623.05 606.57,624.32 605.02,625.58 603.47,626.83 601.93,628.09 600.38,629.34 598.84,630.59 597.31,631.83 595.78,633.07 594.25,634.30 592.73,635.53 591.21,636.76 589.69,637.99 588.18,639.21 586.67,640.42 585.16,641.63 583.66,642.84 582.17,644.05 580.67,645.25 579.18,646.44 577.70,647.63 576.22,648.82 574.74,650.00 573.27,651.18 571.80,652.36 570.33,653.53 568.87,654.69 567.42,655.85 565.96,657.01 564.52,658.16 563.07,659.31 561.63,660.45 560.20,661.59 558.77,662.73 557.34,663.86 555.92,664.98 554.51,666.10 553.10,667.22 551.69,668.33 550.29,669.43 548.89,670.54 547.50,671.63 546.11,672.72 544.73,673.81 543.35,674.89 541.98,675.97 540.61,677.04 539.25,678.11 537.89,679.17 536.53,680.22 535.19,681.27 533.84,682.32 532.51,683.36 531.17,684.40 529.85,685.43 528.52,686.45 527.21,687.47 525.90,688.48 524.59,689.49 523.29,690.49 521.99,691.49 520.71,692.48 519.42,693.47 518.14,694.45 516.87,695.43 515.60,696.40 514.34,697.36 513.09,698.32 511.84,699.27 510.59,700.22 509.35,701.16 508.12,702.09 506.89,703.02 505.67,703.94 504.46,704.86 503.25,705.77 502.05,706.68 500.85,707.57 499.66,708.47 498.48,709.35 497.30,710.23 496.12,711.11 494.96,711.98 493.80,712.84 492.65,713.69 491.50,714.54 490.36,715.39 489.22,716.22 488.10,717.05 486.98,717.87 485.86,718.69 484.75,719.50 483.65,720.31 482.56,721.10">