<?xml version='1.0' encoding='UTF-8'?>
<!-- generated on 2022-11-13 00:27:55 by Eclipse SUMO netconvert Version 1.13.0
<configuration xmlns:xsi="http://www.w3.org/2001/XMLSchema-instance" xsi:noNamespaceSchemaLocation="http://sumo.dlr.de/xsd/netconvertConfiguration.xsd">

    <input>
        <opendrive-files value="map_v4\21\26324522\26324522.xodr"/>
    </input>

    <output>
        <output-file value="C:\Users\LinGe\AppData\Local\Temp\tmpecd1wb_o\26324522.net.xml"/>
    </output>

    <processing>
        <geometry.max-grade.fix value="false"/>
    </processing>

    <tls_building>
        <tls.left-green.time value="0"/>
    </tls_building>

    <junctions>
        <rectangular-lane-cut value="true"/>
    </junctions>

    <report>
        <aggregate-warnings value="5"/>
    </report>

</configuration>
-->
<net xmlns:xsi="http://www.w3.org/2001/XMLSchema-instance" version="1.9" junctionCornerDetail="5" rectangularLaneCut="true" limitTurnSpeed="5.50" xsi:noNamespaceSchemaLocation="http://sumo.dlr.de/xsd/net_file.xsd">
  <location netOffset="1.56,101.26" convBoundary="0.00,0.00,1102.73,1302.51" origBoundary="-1.56,-101.26,1101.18,1201.26" projParameter="!"/>
  <type id="bidirectional" priority="1" speed="1.39" disallow="pedestrian tram rail_urban rail rail_electric rail_fast ship" width="3.65"/>
  <type id="border" priority="0" speed="1.39" disallow="all" discard="1" width="0.10"/>
  <type id="driving" priority="1" speed="13.89" disallow="pedestrian tram rail_urban rail rail_electric rail_fast ship" width="3.65"/>
  <type id="entry" priority="1" speed="22.22" disallow="pedestrian tram rail_urban rail rail_electric rail_fast ship" width="3.65"/>
  <type id="exit" priority="1" speed="22.22" disallow="pedestrian tram rail_urban rail rail_electric rail_fast ship" width="3.65"/>
  <type id="median" priority="0" speed="1.39" disallow="all" discard="1" width="0.10"/>
  <type id="mwyEntry" priority="1" speed="22.22" allow="private emergency authority army vip passenger hov taxi bus coach delivery truck trailer motorcycle evehicle custom1 custom2" width="3.65"/>
  <type id="mwyExit" priority="1" speed="22.22" allow="private emergency authority army vip passenger hov taxi bus coach delivery truck trailer motorcycle evehicle custom1 custom2" width="3.65"/>
  <type id="none" priority="0" speed="1.39" disallow="all" discard="1" width="1.00"/>
  <type id="offRamp" priority="1" speed="22.22" allow="private emergency authority army vip passenger hov taxi bus coach delivery truck trailer motorcycle evehicle custom1 custom2" width="3.65"/>
  <type id="onRamp" priority="1" speed="22.22" allow="private emergency authority army vip passenger hov taxi bus coach delivery truck trailer motorcycle evehicle custom1 custom2" width="3.65"/>
  <type id="parking" priority="1" speed="1.39" disallow="pedestrian tram rail_urban rail rail_electric rail_fast ship" width="2.50"/>
  <type id="rail" priority="3" speed="33.33" allow="rail_urban rail rail_electric rail_fast" width="3.65"/>
  <type id="restricted" priority="0" speed="13.89" disallow="all" width="3.65"/>
  <type id="roadWorks" priority="0" speed="1.39" allow="authority" width="3.65"/>
  <type id="shoulder" priority="0" speed="1.39" disallow="all" discard="1" width="1.00"/>
  <type id="special1" priority="1" speed="22.22" allow="custom1" discard="1" width="3.65"/>
  <type id="special2" priority="1" speed="22.22" allow="custom2" discard="1" width="3.65"/>
  <type id="special3" priority="1" speed="22.22" allow="custom1 custom2" discard="1" width="3.65"/>
  <type id="stop" priority="1" speed="13.89" disallow="pedestrian tram rail_urban rail rail_electric rail_fast ship" width="3.65"/>
  <type id="tram" priority="2" speed="13.89" allow="tram" width="3.65"/>
  <edge id=":0_0" function="internal">
    <lane id=":0_0_0" index="0" disallow="pedestrian tram rail_urban rail rail_electric rail_fast ship" speed="16.67" length="49.45" width="3.75" shape="986.20,285.35 975.11,292.77,0.04 962.93,301.73,0.09 952.45,309.85,0.12 946.46,314.74,0.15"/>
  </edge>
  <edge id=":0_1" function="internal">
    <lane id=":0_1_0" index="0" disallow="pedestrian tram rail_urban rail rail_electric rail_fast ship" speed="22.22" length="49.61" width="3.75" shape="986.20,285.35 943.85,311.18"/>
    <lane id=":0_1_1" index="1" disallow="pedestrian tram rail_urban rail rail_electric rail_fast ship" speed="22.22" length="49.61" width="3.75" shape="984.25,282.14 941.89,307.98"/>
    <lane id=":0_1_2" index="2" disallow="pedestrian tram rail_urban rail rail_electric rail_fast ship" speed="22.22" length="49.61" width="3.75" shape="982.29,278.94 939.94,304.78"/>
  </edge>
  <edge id=":1_0" function="internal">
    <lane id=":1_0_0" index="0" disallow="pedestrian tram rail_urban rail rail_electric rail_fast ship" speed="18.06" length="25.29" width="3.75" shape="419.04,646.97 412.52,652.42 407.81,657.50 404.66,662.06 402.80,665.96"/>
  </edge>
  <edge id=":1_1" function="internal">
    <lane id=":1_1_0" index="0" disallow="pedestrian tram rail_urban rail rail_electric rail_fast ship" speed="22.22" length="25.85" width="3.75" shape="419.04,646.97 398.46,662.51"/>
    <lane id=":1_1_1" index="1" disallow="pedestrian tram rail_urban rail rail_electric rail_fast ship" speed="22.22" length="25.85" width="3.75" shape="416.81,643.96 396.17,659.53"/>
    <lane id=":1_1_2" index="2" disallow="pedestrian tram rail_urban rail rail_electric rail_fast ship" speed="22.22" length="25.85" width="3.75" shape="414.58,640.95 393.89,656.56"/>
  </edge>
  <edge id=":10_0" function="internal">
    <lane id=":10_0_0" index="0" disallow="pedestrian tram rail_urban rail rail_electric rail_fast ship" speed="16.67" length="41.28" width="3.75" shape="883.51,316.06,0.13 889.52,313.68,0.11 899.14,309.59,0.08 910.28,304.36,0.04 920.86,298.58"/>
  </edge>
  <edge id=":10_1" function="internal">
    <lane id=":10_1_0" index="0" disallow="pedestrian tram rail_urban rail rail_electric rail_fast ship" speed="22.22" length="40.72" width="3.75" shape="886.11,319.82 920.86,298.58"/>
    <lane id=":10_1_1" index="1" disallow="pedestrian tram rail_urban rail rail_electric rail_fast ship" speed="22.22" length="40.72" width="3.75" shape="888.07,323.02 922.81,301.78"/>
    <lane id=":10_1_2" index="2" disallow="pedestrian tram rail_urban rail rail_electric rail_fast ship" speed="22.22" length="40.72" width="3.75" shape="890.02,326.22 924.77,304.98"/>
  </edge>
  <edge id=":11_0" function="internal">
    <lane id=":11_0_0" index="0" disallow="pedestrian tram rail_urban rail rail_electric rail_fast ship" speed="16.67" length="63.75" width="3.75" shape="831.61,958.99,20.00 836.50,967.67,20.00 845.70,983.33,20.00 856.09,1000.47,20.00 864.54,1013.55,20.00"/>
  </edge>
  <edge id=":11_1" function="internal">
    <lane id=":11_1_0" index="0" disallow="pedestrian tram rail_urban rail rail_electric rail_fast ship" speed="22.22" length="63.37" width="3.75" shape="828.18,961.65,20.00 864.54,1013.55,20.00"/>
    <lane id=":11_1_1" index="1" disallow="pedestrian tram rail_urban rail rail_electric rail_fast ship" speed="22.22" length="63.37" width="3.75" shape="825.11,963.80,20.00 861.47,1015.70,20.00"/>
    <lane id=":11_1_2" index="2" disallow="pedestrian tram rail_urban rail rail_electric rail_fast ship" speed="22.22" length="63.37" width="3.75" shape="822.04,965.95,20.00 858.40,1017.85,20.00"/>
  </edge>
  <edge id=":12_0" function="internal">
    <lane id=":12_0_0" index="0" disallow="pedestrian tram rail_urban rail rail_electric rail_fast ship" speed="18.06" length="26.02" width="3.75" shape="609.62,704.91,20.00 609.37,700.51,20.00 608.06,694.92,20.00 605.30,688.33,20.00 600.70,680.91,20.00"/>
  </edge>
  <edge id=":12_1" function="internal">
    <lane id=":12_1_0" index="0" disallow="pedestrian tram rail_urban rail rail_electric rail_fast ship" speed="22.22" length="24.47" width="3.75" shape="615.05,700.72,20.00 600.70,680.91,20.00"/>
    <lane id=":12_1_1" index="1" disallow="pedestrian tram rail_urban rail rail_electric rail_fast ship" speed="22.22" length="24.47" width="3.75" shape="618.09,698.52,20.00 603.74,678.71,20.00"/>
    <lane id=":12_1_2" index="2" disallow="pedestrian tram rail_urban rail rail_electric rail_fast ship" speed="22.22" length="24.47" width="3.75" shape="621.13,696.33,20.00 606.77,676.50,20.00"/>
  </edge>
  <edge id=":13_0" function="internal">
    <lane id=":13_0_0" index="0" disallow="pedestrian tram rail_urban rail rail_electric rail_fast ship" speed="19.44" length="61.27" width="3.75" shape="354.66,662.30,0.17 362.78,657.23,0.14 377.32,647.83,0.09 393.30,637.20,0.04 405.75,628.50"/>
  </edge>
  <edge id=":13_1" function="internal">
    <lane id=":13_1_0" index="0" disallow="pedestrian tram rail_urban rail rail_electric rail_fast ship" speed="22.22" length="60.79" width="3.75" shape="357.49,665.67 405.75,628.50"/>
    <lane id=":13_1_1" index="1" disallow="pedestrian tram rail_urban rail rail_electric rail_fast ship" speed="22.22" length="60.79" width="3.75" shape="359.82,668.61 407.98,631.52"/>
    <lane id=":13_1_2" index="2" disallow="pedestrian tram rail_urban rail rail_electric rail_fast ship" speed="22.22" length="60.79" width="3.75" shape="362.16,671.54 410.22,634.53"/>
  </edge>
  <edge id=":13.12_0" function="internal">
    <lane id=":13.12_0_0" index="0" disallow="pedestrian tram rail_urban rail rail_electric rail_fast ship" speed="22.22" length="0.30" width="3.75" shape="498.64,507.20,20.00 498.83,507.44,20.00"/>
    <lane id=":13.12_0_1" index="1" disallow="pedestrian tram rail_urban rail rail_electric rail_fast ship" speed="22.22" length="0.30" width="3.75" shape="495.72,509.56,20.00 495.91,509.80,20.00"/>
    <lane id=":13.12_0_2" index="2" disallow="pedestrian tram rail_urban rail rail_electric rail_fast ship" speed="22.22" length="0.30" width="3.75" shape="492.81,511.92,20.00 492.99,512.15,20.00"/>
  </edge>
  <edge id=":14_0" function="internal">
    <lane id=":14_0_0" index="0" disallow="pedestrian tram rail_urban rail rail_electric rail_fast ship" speed="16.67" length="28.70" width="3.75" shape="636.80,509.12 632.20,509.39 626.03,510.83 618.57,513.76 610.06,518.49"/>
  </edge>
  <edge id=":14_1" function="internal">
    <lane id=":14_1_0" index="0" disallow="pedestrian tram rail_urban rail rail_electric rail_fast ship" speed="22.22" length="27.24" width="3.75" shape="633.02,503.85 610.06,518.49"/>
    <lane id=":14_1_1" index="1" disallow="pedestrian tram rail_urban rail rail_electric rail_fast ship" speed="22.22" length="27.24" width="3.75" shape="631.01,500.69 608.04,515.33"/>
    <lane id=":14_1_2" index="2" disallow="pedestrian tram rail_urban rail rail_electric rail_fast ship" speed="22.22" length="27.24" width="3.75" shape="628.99,497.52 606.02,512.17"/>
  </edge>
  <edge id=":15_0" function="internal">
    <lane id=":15_0_0" index="0" disallow="pedestrian tram rail_urban rail rail_electric rail_fast ship" speed="11.11" length="16.00" width="3.75" shape="756.01,666.24,12.14 756.52,682.24,12.21"/>
  </edge>
  <edge id=":15_1" function="internal">
    <lane id=":15_1_0" index="0" disallow="pedestrian tram rail_urban rail rail_electric rail_fast ship" speed="11.11" length="15.46" width="3.75" shape="751.79,667.69,12.13 753.66,671.01,12.15 755.09,674.65,12.17 756.05,678.44,12.19 756.52,682.24,12.21"/>
  </edge>
  <edge id=":19.18_0" function="internal">
    <lane id=":19.18_0_0" index="0" disallow="pedestrian tram rail_urban rail rail_electric rail_fast ship" speed="22.22" length="0.30" width="3.75" shape="481.13,521.73,20.00 480.94,521.50,20.00"/>
    <lane id=":19.18_0_1" index="1" disallow="pedestrian tram rail_urban rail rail_electric rail_fast ship" speed="22.22" length="0.30" width="3.75" shape="484.05,519.38,20.00 483.86,519.15,20.00"/>
    <lane id=":19.18_0_2" index="2" disallow="pedestrian tram rail_urban rail rail_electric rail_fast ship" speed="22.22" length="0.30" width="3.75" shape="486.96,517.02,20.00 486.77,516.79,20.00"/>
  </edge>
  <edge id=":2_0" function="internal">
    <lane id=":2_0_0" index="0" disallow="pedestrian tram rail_urban rail rail_electric rail_fast ship" speed="20.83" length="31.44" width="3.75" shape="126.98,868.56 134.27,860.99,0.05 139.82,854.01,0.10 143.79,848.15,0.13 146.35,843.92,0.16"/>
  </edge>
  <edge id=":2_1" function="internal">
    <lane id=":2_1_0" index="0" disallow="pedestrian tram rail_urban rail rail_electric rail_fast ship" speed="22.22" length="31.68" width="3.75" shape="126.98,868.56 150.14,846.93"/>
    <lane id=":2_1_1" index="1" disallow="pedestrian tram rail_urban rail rail_electric rail_fast ship" speed="22.22" length="31.68" width="3.75" shape="129.54,871.29 152.70,849.67"/>
    <lane id=":2_1_2" index="2" disallow="pedestrian tram rail_urban rail rail_electric rail_fast ship" speed="22.22" length="31.68" width="3.75" shape="132.11,874.03 155.25,852.42"/>
  </edge>
  <edge id=":23.22_0" function="internal">
    <lane id=":23.22_0_0" index="0" disallow="pedestrian tram rail_urban rail rail_electric rail_fast ship" speed="11.11" length="0.30" width="3.75" shape="475.71,814.45,7.09 475.43,814.34,7.08"/>
  </edge>
  <edge id=":26.25_0" function="internal">
    <lane id=":26.25_0_0" index="0" disallow="pedestrian tram rail_urban rail rail_electric rail_fast ship" speed="19.44" length="0.30" width="3.75" shape="207.66,566.02,7.79 207.64,565.72,7.80"/>
  </edge>
  <edge id=":28.27_0" function="internal">
    <lane id=":28.27_0_0" index="0" disallow="pedestrian tram rail_urban rail rail_electric rail_fast ship" speed="11.11" length="0.30" width="3.75" shape="551.08,377.56,8.91 551.37,377.62,8.90"/>
  </edge>
  <edge id=":3_0" function="internal">
    <lane id=":3_0_0" index="0" disallow="pedestrian tram rail_urban rail rail_electric rail_fast ship" speed="16.67" length="89.83" width="3.75" shape="149.16,134.22,20.00 163.39,147.78,20.00 184.69,167.47,20.00 204.73,185.76,20.00 215.17,195.14,20.00"/>
  </edge>
  <edge id=":3_1" function="internal">
    <lane id=":3_1_0" index="0" disallow="pedestrian tram rail_urban rail rail_electric rail_fast ship" speed="22.22" length="89.95" width="3.75" shape="149.16,134.22,20.00 212.41,198.20,20.00"/>
    <lane id=":3_1_1" index="1" disallow="pedestrian tram rail_urban rail rail_electric rail_fast ship" speed="22.22" length="89.95" width="3.75" shape="146.50,136.86,20.00 209.74,200.83,20.00"/>
    <lane id=":3_1_2" index="2" disallow="pedestrian tram rail_urban rail rail_electric rail_fast ship" speed="22.22" length="89.95" width="3.75" shape="143.84,139.50,20.00 207.06,203.46,20.00"/>
  </edge>
  <edge id=":3.2_0" function="internal">
    <lane id=":3.2_0_0" index="0" disallow="pedestrian tram rail_urban rail rail_electric rail_fast ship" speed="22.22" length="0.30" width="3.75" shape="430.33,638.68 430.09,638.85"/>
    <lane id=":3.2_0_1" index="1" disallow="pedestrian tram rail_urban rail rail_electric rail_fast ship" speed="22.22" length="0.30" width="3.75" shape="428.13,635.64 427.88,635.82"/>
    <lane id=":3.2_0_2" index="2" disallow="pedestrian tram rail_urban rail rail_electric rail_fast ship" speed="22.22" length="0.30" width="3.75" shape="425.92,632.61 425.68,632.79"/>
  </edge>
  <edge id=":30.29_0" function="internal">
    <lane id=":30.29_0_0" index="0" disallow="pedestrian tram rail_urban rail rail_electric rail_fast ship" speed="11.11" length="0.29" width="3.75" shape="757.50,641.88,10.48 757.46,642.17,10.50"/>
  </edge>
  <edge id=":33.32_0" function="internal">
    <lane id=":33.32_0_0" index="0" disallow="pedestrian tram rail_urban rail rail_electric rail_fast ship" speed="13.89" length="0.28" width="3.75" shape="492.40,758.07,9.99 492.68,758.12,10.02"/>
  </edge>
  <edge id=":35.34_0" function="internal">
    <lane id=":35.34_0_0" index="0" disallow="pedestrian tram rail_urban rail rail_electric rail_fast ship" speed="16.67" length="0.30" width="3.75" shape="58.46,463.78,10.42 58.35,464.05,10.41"/>
  </edge>
  <edge id=":37.36_0" function="internal">
    <lane id=":37.36_0_0" index="0" disallow="pedestrian tram rail_urban rail rail_electric rail_fast ship" speed="11.11" length="0.27" width="3.75" shape="675.92,587.28,10.02 675.97,587.02,9.98"/>
  </edge>
  <edge id=":39.38_0" function="internal">
    <lane id=":39.38_0_0" index="0" disallow="pedestrian tram rail_urban rail rail_electric rail_fast ship" speed="11.11" length="0.29" width="3.75" shape="478.60,574.21,8.71 478.89,574.21,8.72"/>
  </edge>
  <edge id=":4_0" function="internal">
    <lane id=":4_0_0" index="0" disallow="pedestrian tram rail_urban rail rail_electric rail_fast ship" speed="16.67" length="26.60" width="3.75" shape="589.70,627.23,20.00 595.40,634.19,20.00 600.68,639.29,20.00 605.36,642.78,20.00 609.24,644.90,20.00"/>
  </edge>
  <edge id=":4_1" function="internal">
    <lane id=":4_1_0" index="0" disallow="pedestrian tram rail_urban rail rail_electric rail_fast ship" speed="22.22" length="27.20" width="3.75" shape="589.70,627.23,20.00 605.76,649.20,20.00"/>
    <lane id=":4_1_1" index="1" disallow="pedestrian tram rail_urban rail rail_electric rail_fast ship" speed="22.22" length="27.20" width="3.75" shape="586.68,629.45,20.00 602.73,651.41,20.00"/>
    <lane id=":4_1_2" index="2" disallow="pedestrian tram rail_urban rail rail_electric rail_fast ship" speed="22.22" length="27.20" width="3.75" shape="583.65,631.67,20.00 599.70,653.62,20.00"/>
  </edge>
  <edge id=":5_0" function="internal">
    <lane id=":5_0_0" index="0" disallow="pedestrian tram rail_urban rail rail_electric rail_fast ship" speed="16.67" length="58.67" width="3.75" shape="988.21,1230.64,20.00 979.30,1218.84,19.97 967.80,1204.62,19.93 957.28,1192.01,19.89 951.29,1185.06,19.87"/>
  </edge>
  <edge id=":5_1" function="internal">
    <lane id=":5_1_0" index="0" disallow="pedestrian tram rail_urban rail rail_electric rail_fast ship" speed="22.22" length="58.78" width="3.75" shape="988.21,1230.64,20.00 954.61,1182.40,20.00"/>
    <lane id=":5_1_1" index="1" disallow="pedestrian tram rail_urban rail rail_electric rail_fast ship" speed="22.22" length="58.78" width="3.75" shape="991.29,1228.49,20.00 957.69,1180.26,20.00"/>
    <lane id=":5_1_2" index="2" disallow="pedestrian tram rail_urban rail rail_electric rail_fast ship" speed="22.22" length="58.78" width="3.75" shape="994.36,1226.35,20.00 960.77,1178.11,20.00"/>
  </edge>
  <edge id=":6_0" function="internal">
    <lane id=":6_0_0" index="0" disallow="pedestrian tram rail_urban rail rail_electric rail_fast ship" speed="19.44" length="90.91" width="3.75" shape="463.05,499.82,20.00 449.67,485.20,20.00 429.35,463.98,20.00 410.14,444.30,20.00 400.08,434.27,20.00"/>
  </edge>
  <edge id=":6_1" function="internal">
    <lane id=":6_1_0" index="0" disallow="pedestrian tram rail_urban rail rail_electric rail_fast ship" speed="22.22" length="90.86" width="3.75" shape="463.05,499.82,20.00 403.27,431.59,20.00"/>
    <lane id=":6_1_1" index="1" disallow="pedestrian tram rail_urban rail rail_electric rail_fast ship" speed="22.22" length="90.86" width="3.75" shape="465.93,497.41,20.00 406.05,429.07,20.00"/>
    <lane id=":6_1_2" index="2" disallow="pedestrian tram rail_urban rail rail_electric rail_fast ship" speed="22.22" length="90.86" width="3.75" shape="468.80,495.00,20.00 408.83,426.56,20.00"/>
  </edge>
  <edge id=":7_0" function="internal">
    <lane id=":7_0_0" index="0" disallow="pedestrian tram rail_urban rail rail_electric rail_fast ship" speed="16.67" length="74.44" width="3.75" shape="200.67,837.04,0.00 191.51,844.21,0.00 174.54,857.96,0.00 156.28,873.09,0.00 143.27,884.42"/>
  </edge>
  <edge id=":7_1" function="internal">
    <lane id=":7_1_0" index="0" disallow="pedestrian tram rail_urban rail rail_electric rail_fast ship" speed="22.22" length="74.12" width="3.75" shape="197.58,834.03 143.27,884.42"/>
    <lane id=":7_1_1" index="1" disallow="pedestrian tram rail_urban rail rail_electric rail_fast ship" speed="22.22" length="74.12" width="3.75" shape="195.04,831.27 140.71,881.69"/>
    <lane id=":7_1_2" index="2" disallow="pedestrian tram rail_urban rail rail_electric rail_fast ship" speed="22.22" length="74.12" width="3.75" shape="192.50,828.50 138.14,878.95"/>
  </edge>
  <edge id=":8_0" function="internal">
    <lane id=":8_0_0" index="0" disallow="pedestrian tram rail_urban rail rail_electric rail_fast ship" speed="20.83" length="43.34" width="3.75" shape="103.24,126.92,19.85 99.37,121.35,19.87 92.68,112.42,19.91 84.51,102.28,19.96 76.20,93.11,20.00"/>
  </edge>
  <edge id=":8_1" function="internal">
    <lane id=":8_1_0" index="0" disallow="pedestrian tram rail_urban rail rail_electric rail_fast ship" speed="22.22" length="42.75" width="3.75" shape="106.36,123.40,20.00 76.20,93.11,20.00"/>
    <lane id=":8_1_1" index="1" disallow="pedestrian tram rail_urban rail rail_electric rail_fast ship" speed="22.22" length="42.75" width="3.75" shape="109.02,120.76,20.00 78.86,90.47,20.00"/>
    <lane id=":8_1_2" index="2" disallow="pedestrian tram rail_urban rail rail_electric rail_fast ship" speed="22.22" length="42.75" width="3.75" shape="111.68,118.11,20.00 81.51,87.82,20.00"/>
  </edge>
  <edge id=":9_0" function="internal">
    <lane id=":9_0_0" index="0" disallow="pedestrian tram rail_urban rail rail_electric rail_fast ship" speed="19.44" length="16.04" width="3.75" shape="200.43,666.83,5.31 202.81,650.96,5.35"/>
  </edge>
  <edge id=":9_1" function="internal">
    <lane id=":9_1_0" index="0" disallow="pedestrian tram rail_urban rail rail_electric rail_fast ship" speed="15.28" length="17.55" width="3.75" shape="200.43,666.83,5.31 201.50,662.83,5.32 203.32,658.58,5.34 205.62,654.55,5.35 208.12,651.23,5.37"/>
  </edge>
  <edge id=":9.8_0" function="internal">
    <lane id=":9.8_0_0" index="0" disallow="pedestrian tram rail_urban rail rail_electric rail_fast ship" speed="22.22" length="0.30" width="3.75" shape="416.71,620.46 416.95,620.28"/>
    <lane id=":9.8_0_1" index="1" disallow="pedestrian tram rail_urban rail rail_electric rail_fast ship" speed="22.22" length="0.30" width="3.75" shape="418.91,623.49 419.16,623.31"/>
    <lane id=":9.8_0_2" index="2" disallow="pedestrian tram rail_urban rail rail_electric rail_fast ship" speed="22.22" length="0.30" width="3.75" shape="421.12,626.52 421.36,626.34"/>
  </edge>
  <edge id="-0" from="0.begin" to="0" priority="1" type="driving" shape="1102.73,202.87 1101.83,203.44 1100.91,204.03 1099.95,204.62 1098.98,205.24 1097.98,205.86 1096.95,206.51 1095.90,207.16 1094.83,207.83 1093.73,208.52 1092.61,209.22 1091.46,209.93 1090.29,210.66 1089.09,211.40 1087.88,212.15 1086.64,212.92 1085.37,213.70 1084.08,214.50 1082.77,215.31 1081.44,216.13 1080.09,216.97 1078.71,217.82 1077.31,218.68 1075.89,219.56 1074.44,220.44 1072.98,221.35 1071.49,222.26 1069.98,223.19 1068.45,224.13 1066.90,225.08 1065.33,226.04 1063.74,227.02 1062.13,228.01 1060.49,229.01 1058.84,230.02 1057.17,231.05 1055.47,232.08 1053.76,233.13 1052.03,234.19 1050.27,235.26 1048.50,236.35 1046.71,237.44 1044.90,238.55 1043.07,239.67 1041.23,240.80 1039.36,241.94 1037.47,243.09 1035.57,244.25 1033.65,245.42 1031.71,246.61 1029.76,247.80 1027.78,249.01 1025.79,250.22 1023.78,251.45 1021.76,252.68 1019.71,253.93 1017.65,255.18 1015.58,256.45 1013.49,257.73 1011.38,259.01 1009.25,260.31 1007.11,261.61 1004.95,262.93 1002.78,264.25 1000.59,265.59 998.39,266.93 996.17,268.28 993.94,269.65 991.69,271.02 989.43,272.40 987.15,273.79 984.86,275.18 982.55,276.59 980.23,278.00 977.90,279.43">
    <lane id="-0_0" index="0" disallow="pedestrian tram rail_urban rail rail_electric rail_fast ship" speed="22.22" length="142.52" width="3.75" shape="1107.74,210.80 1106.83,211.37 1105.90,211.96 1104.94,212.56 1103.96,213.18 1102.95,213.81 1101.92,214.45 1100.87,215.11 1099.79,215.79 1098.69,216.47 1097.56,217.18 1096.41,217.89 1095.23,218.62 1094.04,219.36 1092.81,220.12 1091.57,220.89 1090.30,221.68 1089.01,222.47 1087.70,223.29 1086.37,224.11 1085.01,224.95 1083.63,225.80 1082.23,226.66 1080.80,227.54 1079.36,228.43 1077.89,229.33 1076.40,230.25 1074.89,231.17 1073.36,232.11 1071.81,233.07 1070.23,234.03 1068.64,235.01 1067.03,236.00 1065.39,237.00 1063.74,238.02 1062.06,239.04 1060.37,240.08 1058.65,241.13 1056.92,242.19 1055.17,243.26 1053.39,244.35 1051.60,245.44 1049.79,246.55 1047.96,247.67 1046.11,248.80 1044.25,249.94 1042.36,251.09 1040.46,252.25 1038.54,253.42 1036.60,254.61 1034.64,255.80 1032.67,257.01 1030.67,258.22 1028.67,259.45 1026.64,260.69 1024.60,261.93 1022.54,263.19 1020.46,264.45 1018.37,265.73 1016.26,267.02 1014.13,268.31 1011.99,269.62 1009.84,270.93 1007.66,272.26 1005.47,273.59 1003.27,274.94 1001.05,276.29 998.82,277.65 996.57,279.02 994.31,280.40 992.03,281.79 989.74,283.19 987.43,284.59 986.20,285.35" type="driving"/>
    <lane id="-0_1" index="1" disallow="pedestrian tram rail_urban rail rail_electric rail_fast ship" speed="22.22" length="142.52" width="3.75" shape="1105.73,207.63 1104.83,208.20 1103.90,208.79 1102.95,209.39 1101.97,210.00 1100.96,210.63 1099.93,211.27 1098.88,211.93 1097.80,212.60 1096.70,213.29 1095.58,213.99 1094.43,214.71 1093.26,215.44 1092.06,216.18 1090.84,216.93 1089.60,217.70 1088.33,218.49 1087.04,219.28 1085.73,220.09 1084.40,220.92 1083.04,221.76 1081.66,222.61 1080.26,223.47 1078.84,224.35 1077.39,225.23 1075.93,226.14 1074.44,227.05 1072.93,227.98 1071.40,228.92 1069.85,229.87 1068.27,230.84 1066.68,231.81 1065.07,232.80 1063.43,233.80 1061.78,234.82 1060.10,235.84 1058.41,236.88 1056.70,237.93 1054.96,238.99 1053.21,240.06 1051.44,241.15 1049.65,242.24 1047.84,243.35 1046.01,244.47 1044.16,245.60 1042.29,246.74 1040.41,247.89 1038.50,249.05 1036.58,250.22 1034.64,251.41 1032.69,252.60 1030.71,253.81 1028.72,255.02 1026.71,256.25 1024.69,257.48 1022.64,258.73 1020.58,259.99 1018.51,261.25 1016.42,262.53 1014.31,263.82 1012.18,265.11 1010.04,266.42 1007.88,267.73 1005.71,269.06 1003.52,270.39 1001.32,271.73 999.10,273.09 996.87,274.45 994.62,275.82 992.35,277.20 990.08,278.59 987.78,279.99 985.48,281.39 984.25,282.14" type="driving"/>
    <lane id="-0_2" index="2" disallow="pedestrian tram rail_urban rail rail_electric rail_fast ship" speed="22.22" length="142.52" width="3.75" shape="1103.73,204.46 1102.83,205.03 1101.90,205.61 1100.95,206.21 1099.98,206.82 1098.97,207.45 1097.95,208.09 1096.90,208.75 1095.82,209.42 1094.72,210.11 1093.60,210.81 1092.45,211.52 1091.28,212.25 1090.08,212.99 1088.86,213.75 1087.62,214.52 1086.36,215.30 1085.07,216.09 1083.76,216.90 1082.43,217.73 1081.07,218.56 1079.69,219.41 1078.29,220.28 1076.87,221.15 1075.43,222.04 1073.96,222.94 1072.47,223.86 1070.97,224.78 1069.44,225.72 1067.88,226.68 1066.31,227.64 1064.72,228.62 1063.11,229.61 1061.47,230.61 1059.82,231.62 1058.15,232.65 1056.45,233.68 1054.74,234.73 1053.01,235.79 1051.25,236.86 1049.48,237.95 1047.69,239.04 1045.88,240.15 1044.05,241.27 1042.20,242.40 1040.34,243.54 1038.45,244.69 1036.55,245.85 1034.63,247.02 1032.69,248.21 1030.73,249.40 1028.76,250.61 1026.77,251.82 1024.76,253.05 1022.73,254.28 1020.69,255.53 1018.63,256.78 1016.56,258.05 1014.46,259.33 1012.35,260.61 1010.23,261.91 1008.09,263.22 1005.93,264.53 1003.76,265.85 1001.57,267.19 999.37,268.53 997.15,269.88 994.91,271.25 992.67,272.62 990.40,274.00 988.12,275.39 985.83,276.78 983.53,278.19 982.29,278.94" type="driving"/>
  </edge>