<?xml version='1.0' encoding='UTF-8'?>
<!-- generated on 2022-09-02 15:34:23 by Eclipse SUMO netconvert Version 1.13.0
<configuration xmlns:xsi="http://www.w3.org/2001/XMLSchema-instance" xsi:noNamespaceSchemaLocation="http://sumo.dlr.de/xsd/netconvertConfiguration.xsd">

    <input>
        <opendrive-files value="map\classification\19\13463541\13463541.xodr"/>
    </input>

    <output>
        <output-file value="C:\Users\LinGe\AppData\Local\Temp\tmpnzr9cb9d\13463541.net.xml"/>
    </output>

    <processing>
        <geometry.max-grade.fix value="false"/>
    </processing>

    <tls_building>
        <tls.left-green.time value="0"/>
    </tls_building>

    <junctions>
        <rectangular-lane-cut value="true"/>
    </junctions>

    <report>
        <aggregate-warnings value="5"/>
    </report>

</configuration>
-->
<net xmlns:xsi="http://www.w3.org/2001/XMLSchema-instance" version="1.9" junctionCornerDetail="5" rectangularLaneCut="true" limitTurnSpeed="5.50" xsi:noNamespaceSchemaLocation="http://sumo.dlr.de/xsd/net_file.xsd">
  <location netOffset="1.56,101.26" convBoundary="0.00,0.00,1102.73,1302.51" origBoundary="-1.56,-101.26,1101.18,1201.26" projParameter="!"/>
  <type id="bidirectional" priority="1" speed="1.39" disallow="pedestrian tram rail_urban rail rail_electric rail_fast ship" width="3.65"/>
  <type id="border" priority="0" speed="1.39" disallow="all" discard="1" width="0.10"/>
  <type id="driving" priority="1" speed="13.89" disallow="pedestrian tram rail_urban rail rail_electric rail_fast ship" width="3.65"/>
  <type id="entry" priority="1" speed="22.22" disallow="pedestrian tram rail_urban rail rail_electric rail_fast ship" width="3.65"/>
  <type id="exit" priority="1" speed="22.22" disallow="pedestrian tram rail_urban rail rail_electric rail_fast ship" width="3.65"/>
  <type id="median" priority="0" speed="1.39" disallow="all" discard="1" width="0.10"/>
  <type id="mwyEntry" priority="1" speed="22.22" allow="private emergency authority army vip passenger hov taxi bus coach delivery truck trailer motorcycle evehicle custom1 custom2" width="3.65"/>
  <type id="mwyExit" priority="1" speed="22.22" allow="private emergency authority army vip passenger hov taxi bus coach delivery truck trailer motorcycle evehicle custom1 custom2" width="3.65"/>
  <type id="none" priority="0" speed="1.39" disallow="all" discard="1" width="1.00"/>
  <type id="offRamp" priority="1" speed="22.22" allow="private emergency authority army vip passenger hov taxi bus coach delivery truck trailer motorcycle evehicle custom1 custom2" width="3.65"/>
  <type id="onRamp" priority="1" speed="22.22" allow="private emergency authority army vip passenger hov taxi bus coach delivery truck trailer motorcycle evehicle custom1 custom2" width="3.65"/>
  <type id="parking" priority="1" speed="1.39" disallow="pedestrian tram rail_urban rail rail_electric rail_fast ship" width="2.50"/>
  <type id="rail" priority="3" speed="33.33" allow="rail_urban rail rail_electric rail_fast" width="3.65"/>
  <type id="restricted" priority="0" speed="13.89" disallow="all" width="3.65"/>
  <type id="roadWorks" priority="0" speed="1.39" allow="authority" width="3.65"/>
  <type id="shoulder" priority="0" speed="1.39" disallow="all" discard="1" width="1.00"/>
  <type id="special1" priority="1" speed="22.22" allow="custom1" discard="1" width="3.65"/>
  <type id="special2" priority="1" speed="22.22" allow="custom2" discard="1" width="3.65"/>
  <type id="special3" priority="1" speed="22.22" allow="custom1 custom2" discard="1" width="3.65"/>
  <type id="stop" priority="1" speed="13.89" disallow="pedestrian tram rail_urban rail rail_electric rail_fast ship" width="3.65"/>
  <type id="tram" priority="2" speed="13.89" allow="tram" width="3.65"/>
  <edge id=":0_0" function="internal">
    <lane id=":0_0_0" index="0" disallow="pedestrian tram rail_urban rail rail_electric rail_fast ship" speed="16.67" length="31.73" width="3.75" shape="829.19,463.42 821.56,470.72,0.01 815.63,477.52,0.02 811.38,483.31,0.03 808.77,487.54,0.03"/>
  </edge>
  <edge id=":0_1" function="internal">
    <lane id=":0_1_0" index="0" disallow="pedestrian tram rail_urban rail rail_electric rail_fast ship" speed="22.22" length="32.13" width="3.75" shape="829.19,463.42 804.83,484.41"/>
    <lane id=":0_1_1" index="1" disallow="pedestrian tram rail_urban rail rail_electric rail_fast ship" speed="22.22" length="32.13" width="3.75" shape="826.73,460.59 802.39,481.56"/>
    <lane id=":0_1_2" index="2" disallow="pedestrian tram rail_urban rail rail_electric rail_fast ship" speed="22.22" length="32.13" width="3.75" shape="824.27,457.75 799.95,478.71"/>
  </edge>
  <edge id=":1_0" function="internal">
    <lane id=":1_0_0" index="0" disallow="pedestrian tram rail_urban rail rail_electric rail_fast ship" speed="15.28" length="49.98" width="3.75" shape="100.31,86.62,20.00 110.09,95.81,19.97 121.69,105.79,19.94 132.06,114.34,19.91 138.18,119.20,19.89"/>
  </edge>
  <edge id=":1_1" function="internal">
    <lane id=":1_1_0" index="0" disallow="pedestrian tram rail_urban rail rail_electric rail_fast ship" speed="22.22" length="50.08" width="3.75" shape="100.31,86.62,20.00 135.33,122.43,20.00"/>
    <lane id=":1_1_1" index="1" disallow="pedestrian tram rail_urban rail rail_electric rail_fast ship" speed="22.22" length="50.08" width="3.75" shape="97.63,89.24,20.00 132.65,125.05,20.00"/>
    <lane id=":1_1_2" index="2" disallow="pedestrian tram rail_urban rail rail_electric rail_fast ship" speed="22.22" length="50.08" width="3.75" shape="94.95,91.87,20.00 129.97,127.67,20.00"/>
  </edge>
  <edge id=":13.12_0" function="internal">
    <lane id=":13.12_0_0" index="0" disallow="pedestrian tram rail_urban rail rail_electric rail_fast ship" speed="8.33" length="0.29" width="3.75" shape="570.46,375.83,9.09 570.75,375.89,9.08"/>
  </edge>
  <edge id=":15.14_0" function="internal">
    <lane id=":15.14_0_0" index="0" disallow="pedestrian tram rail_urban rail rail_electric rail_fast ship" speed="11.11" length="0.30" width="3.75" shape="700.58,781.15,7.09 700.31,781.02,7.10"/>
  </edge>
  <edge id=":2_0" function="internal">
    <lane id=":2_0_0" index="0" disallow="pedestrian tram rail_urban rail rail_electric rail_fast ship" speed="15.28" length="53.81" width="3.75" shape="962.68,306.92,0.16 969.53,302.03,0.13 981.33,293.18,0.09 994.42,282.93,0.04 1005.10,273.85"/>
  </edge>
  <edge id=":2_1" function="internal">
    <lane id=":2_1_0" index="0" disallow="pedestrian tram rail_urban rail rail_electric rail_fast ship" speed="22.22" length="53.37" width="3.75" shape="965.89,310.03 1005.10,273.85"/>
    <lane id=":2_1_1" index="1" disallow="pedestrian tram rail_urban rail rail_electric rail_fast ship" speed="22.22" length="53.37" width="3.75" shape="968.43,312.79 1007.65,276.60"/>
    <lane id=":2_1_2" index="2" disallow="pedestrian tram rail_urban rail rail_electric rail_fast ship" speed="22.22" length="53.37" width="3.75" shape="970.97,315.55 1010.19,279.36"/>
  </edge>
  <edge id=":2.1_0" function="internal">
    <lane id=":2.1_0_0" index="0" disallow="pedestrian tram rail_urban rail rail_electric rail_fast ship" speed="22.22" length="0.30" width="3.75" shape="659.96,600.32 659.72,600.50"/>
    <lane id=":2.1_0_1" index="1" disallow="pedestrian tram rail_urban rail rail_electric rail_fast ship" speed="22.22" length="0.30" width="3.75" shape="657.76,597.29 657.51,597.46"/>
    <lane id=":2.1_0_2" index="2" disallow="pedestrian tram rail_urban rail rail_electric rail_fast ship" speed="22.22" length="0.30" width="3.75" shape="655.55,594.26 655.31,594.43"/>
  </edge>
  <edge id=":3_0" function="internal">
    <lane id=":3_0_0" index="0" disallow="pedestrian tram rail_urban rail rail_electric rail_fast ship" speed="16.67" length="142.94" width="3.75" shape="178.77,205.28,20.00 81.82,100.23,20.00"/>
  </edge>
  <edge id=":3_1" function="internal">
    <lane id=":3_1_0" index="0" disallow="pedestrian tram rail_urban rail rail_electric rail_fast ship" speed="22.22" length="142.80" width="3.75" shape="181.55,202.42,20.00 81.82,100.23,20.00"/>
    <lane id=":3_1_1" index="1" disallow="pedestrian tram rail_urban rail rail_electric rail_fast ship" speed="22.22" length="142.80" width="3.75" shape="184.24,199.80,20.00 84.50,97.61,20.00"/>
    <lane id=":3_1_2" index="2" disallow="pedestrian tram rail_urban rail rail_electric rail_fast ship" speed="22.22" length="142.80" width="3.75" shape="186.93,197.19,20.00 87.18,94.98,20.00"/>
  </edge>
  <edge id=":4.3_0" function="internal">
    <lane id=":4.3_0_0" index="0" disallow="pedestrian tram rail_urban rail rail_electric rail_fast ship" speed="22.22" length="0.30" width="3.75" shape="646.34,582.10 646.58,581.92"/>
    <lane id=":4.3_0_1" index="1" disallow="pedestrian tram rail_urban rail rail_electric rail_fast ship" speed="22.22" length="0.30" width="3.75" shape="648.54,585.13 648.79,584.95"/>
    <lane id=":4.3_0_2" index="2" disallow="pedestrian tram rail_urban rail rail_electric rail_fast ship" speed="22.22" length="0.30" width="3.75" shape="650.75,588.17 650.99,587.99"/>
  </edge>
  <edge id=":8.7_0" function="internal">
    <lane id=":8.7_0_0" index="0" disallow="pedestrian tram rail_urban rail rail_electric rail_fast ship" speed="22.22" length="0.30" width="3.75" shape="530.96,547.38,20.00 531.15,547.62,20.00"/>
    <lane id=":8.7_0_1" index="1" disallow="pedestrian tram rail_urban rail rail_electric rail_fast ship" speed="22.22" length="0.30" width="3.75" shape="528.05,549.74,20.00 528.23,549.97,20.00"/>
    <lane id=":8.7_0_2" index="2" disallow="pedestrian tram rail_urban rail rail_electric rail_fast ship" speed="22.22" length="0.30" width="3.75" shape="525.13,552.10,20.00 525.32,552.33,20.00"/>
  </edge>
  <edge id=":9.10_0" function="internal">
    <lane id=":9.10_0_0" index="0" disallow="pedestrian tram rail_urban rail rail_electric rail_fast ship" speed="22.22" length="0.30" width="3.75" shape="513.45,561.91,20.00 513.27,561.68,20.00"/>
    <lane id=":9.10_0_1" index="1" disallow="pedestrian tram rail_urban rail rail_electric rail_fast ship" speed="22.22" length="0.30" width="3.75" shape="516.37,559.55,20.00 516.18,559.32,20.00"/>
    <lane id=":9.10_0_2" index="2" disallow="pedestrian tram rail_urban rail rail_electric rail_fast ship" speed="22.22" length="0.30" width="3.75" shape="519.29,557.20,20.00 519.10,556.96,20.00"/>
  </edge>
  <edge id="-0" from="0.begin" to="0" priority="1" type="driving" shape="1102.73,202.87 1101.92,203.58 1101.11,204.29 1100.28,205.02 1099.44,205.75 1098.59,206.50 1097.73,207.25 1096.86,208.02 1095.98,208.80 1095.10,209.58 1094.20,210.38 1093.29,211.19 1092.37,212.00 1091.44,212.83 1090.51,213.67 1089.56,214.51 1088.61,215.37 1087.64,216.23 1086.67,217.11 1085.68,217.99 1084.69,218.89 1083.69,219.79 1082.67,220.71 1081.65,221.63 1080.62,222.56 1079.58,223.50 1078.53,224.45 1077.48,225.41 1076.41,226.38 1075.34,227.35 1074.25,228.34 1073.16,229.34 1072.06,230.34 1070.95,231.35 1069.83,232.37 1068.70,233.40 1067.57,234.44 1066.42,235.48 1065.27,236.54 1064.11,237.60 1062.94,238.67 1061.76,239.75 1060.58,240.84 1059.38,241.93 1058.18,243.04 1056.97,244.15 1055.75,245.27 1054.53,246.39 1053.29,247.53 1052.05,248.67 1050.80,249.82 1049.55,250.98 1048.28,252.15 1047.01,253.32 1045.73,254.50 1044.44,255.68 1043.14,256.88 1041.84,258.08 1040.53,259.29 1039.21,260.51 1037.89,261.73 1036.56,262.96 1035.22,264.20 1033.87,265.44 1032.52,266.69 1031.15,267.95 1029.79,269.21 1028.41,270.48 1027.03,271.76 1025.64,273.04 1024.25,274.33 1022.84,275.63 1021.43,276.93 1020.02,278.24 1018.60,279.55 1017.17,280.87 1015.73,282.20 1014.29,283.53 1012.84,284.87 1011.39,286.22 1009.93,287.57 1008.46,288.92 1006.98,290.29 1005.50,291.65 1004.02,293.03 1002.53,294.40 1001.03,295.79 999.52,297.18 998.01,298.57 996.50,299.97 994.98,301.38 993.45,302.79 991.92,304.20 990.38,305.62 988.83,307.05 987.28,308.48 985.73,309.91 984.17,311.35 982.60,312.79 981.03,314.24 979.45,315.69 977.87,317.15 976.28,318.61 974.69,320.08 973.09,321.55 971.49,323.03 969.88,324.51 968.26,325.99 966.65,327.48 965.02,328.97 963.40,330.46 961.76,331.96 960.12,333.46 958.48,334.97 956.84,336.48 955.18,337.99 953.53,339.51 951.87,341.03 950.20,342.56 948.53,344.09 946.86,345.62 945.18,347.15 943.50,348.69 941.81,350.23 940.12,351.77 938.43,353.32 936.73,354.87 935.03,356.42 933.32,357.98 931.61,359.54 929.90,361.10 928.18,362.66 926.46,364.23 924.73,365.79 923.00,367.37 921.27,368.94 919.53,370.51 917.79,372.09 916.05,373.67 914.30,375.26 912.55,376.84 910.80,378.43 909.04,380.02 907.28,381.61 905.52,383.20 903.75,384.79 901.98,386.39 900.21,387.98 898.44,389.58 896.66,391.18 894.88,392.79 893.09,394.39 891.31,395.99 889.52,397.60 887.73,399.21 885.93,400.82 884.13,402.43 882.33,404.04 880.53,405.65 878.73,407.26 876.92,408.87 875.11,410.49 873.30,412.10 871.49,413.72 869.67,415.33 867.85,416.95 866.03,418.57 864.21,420.18 862.39,421.80 860.56,423.42 858.73,425.04 856.90,426.66 855.07,428.28 853.24,429.89 851.41,431.51 849.57,433.13 847.73,434.75 845.89,436.37 844.05,437.99 842.21,439.60 840.37,441.22 838.52,442.84 836.67,444.45 834.83,446.07 832.98,447.69 831.13,449.30 829.28,450.91 827.43,452.53 825.57,454.14 823.72,455.75 821.86,457.36 820.01,458.97">
    <lane id="-0_0" index="0" disallow="pedestrian tram rail_urban rail rail_electric rail_fast ship" speed="22.22" length="377.48" width="3.75" shape="1108.89,209.94 1108.08,210.64 1107.27,211.35 1106.45,212.07 1105.62,212.80 1104.78,213.54 1103.93,214.29 1103.07,215.05 1102.20,215.82 1101.31,216.60 1100.42,217.39 1099.52,218.19 1098.61,219.00 1097.69,219.83 1096.75,220.66 1095.81,221.50 1094.86,222.35 1093.90,223.21 1092.93,224.08 1091.95,224.96 1090.96,225.86 1089.96,226.76 1088.96,227.66 1087.94,228.58 1086.91,229.51 1085.88,230.45 1084.83,231.40 1083.78,232.35 1082.71,233.32 1081.64,234.29 1080.56,235.27 1079.47,236.27 1078.37,237.27 1077.27,238.28 1076.15,239.30 1075.03,240.32 1073.89,241.36 1072.75,242.40 1071.60,243.45 1070.44,244.51 1069.27,245.58 1068.10,246.66 1066.91,247.75 1065.72,248.84 1064.52,249.94 1063.31,251.05 1062.10,252.17 1060.87,253.30 1059.64,254.43 1058.40,255.57 1057.15,256.72 1055.90,257.88 1054.63,259.04 1053.36,260.21 1052.08,261.39 1050.79,262.58 1049.50,263.77 1048.20,264.97 1046.89,266.18 1045.57,267.40 1044.25,268.62 1042.91,269.85 1041.58,271.08 1040.23,272.33 1038.88,273.58 1037.52,274.83 1036.15,276.10 1034.77,277.37 1033.39,278.64 1032.00,279.93 1030.61,281.22 1029.21,282.51 1027.80,283.81 1026.38,285.12 1024.96,286.44 1023.53,287.76 1022.10,289.09 1020.65,290.42 1019.20,291.76 1017.75,293.10 1016.29,294.45 1014.82,295.81 1013.35,297.17 1011.87,298.54 1010.38,299.91 1008.89,301.29 1007.39,302.67 1005.89,304.06 1004.37,305.46 1002.86,306.86 1001.34,308.26 999.81,309.68 998.27,311.09 996.73,312.51 995.19,313.94 993.64,315.37 992.08,316.80 990.52,318.24 988.95,319.69 987.38,321.14 985.80,322.59 984.22,324.05 982.63,325.51 981.04,326.98 979.44,328.45 977.83,329.93 976.22,331.41 974.61,332.89 972.99,334.38 971.37,335.87 969.74,337.37 968.10,338.87 966.46,340.37 964.82,341.88 963.17,343.39 961.52,344.91 959.86,346.42 958.20,347.95 956.53,349.47 954.86,351.00 953.19,352.53 951.51,354.07 949.82,355.61 948.14,357.15 946.44,358.70 944.75,360.24 943.05,361.80 941.34,363.35 939.64,364.91 937.92,366.47 936.21,368.03 934.49,369.59 932.76,371.16 931.04,372.73 929.30,374.31 927.57,375.88 925.83,377.46 924.09,379.04 922.34,380.62 920.59,382.20 918.84,383.79 917.09,385.38 915.33,386.97 913.57,388.56 911.80,390.16 910.03,391.75 908.26,393.35 906.49,394.95 904.71,396.55 902.93,398.15 901.15,399.76 899.36,401.36 897.57,402.97 895.78,404.58 893.98,406.19 892.19,407.80 890.39,409.41 888.58,411.02 886.78,412.64 884.97,414.25 883.16,415.87 881.35,417.48 879.54,419.10 877.72,420.72 875.90,422.34 874.08,423.96 872.26,425.58 870.43,427.20 868.61,428.82 866.78,430.44 864.95,432.06 863.11,433.68 861.28,435.30 859.44,436.92 857.61,438.54 855.77,440.17 853.93,441.79 852.08,443.41 850.24,445.03 848.39,446.65 846.55,448.27 844.70,449.89 842.85,451.51 841.00,453.13 839.14,454.75 837.29,456.36 835.44,457.98 833.58,459.60 831.72,461.21 829.87,462.83 829.19,463.42" type="driving"/>
    <lane id="-0_1" index="1" disallow="pedestrian tram rail_urban rail rail_electric rail_fast ship" speed="22.22" length="377.48" width="3.75" shape="1106.43,207.12 1105.62,207.82 1104.81,208.53 1103.98,209.25 1103.15,209.98 1102.30,210.72 1101.45,211.47 1100.59,212.24 1099.71,213.01 1098.83,213.79 1097.93,214.59 1097.03,215.39 1096.11,216.20 1095.19,217.03 1094.26,217.86 1093.31,218.70 1092.36,219.56 1091.40,220.42 1090.43,221.29 1089.44,222.18 1088.45,223.07 1087.45,223.97 1086.44,224.88 1085.42,225.80 1084.40,226.73 1083.36,227.67 1082.31,228.62 1081.26,229.58 1080.19,230.54 1079.12,231.52 1078.04,232.50 1076.95,233.49 1075.85,234.50 1074.74,235.51 1073.62,236.53 1072.50,237.55 1071.36,238.59 1070.22,239.63 1069.07,240.69 1067.91,241.75 1066.74,242.82 1065.56,243.90 1064.38,244.98 1063.19,246.08 1061.99,247.18 1060.78,248.29 1059.56,249.41 1058.34,250.54 1057.10,251.67 1055.86,252.81 1054.61,253.96 1053.36,255.12 1052.09,256.28 1050.82,257.45 1049.54,258.63 1048.25,259.82 1046.96,261.01 1045.65,262.22 1044.34,263.42 1043.03,264.64 1041.70,265.86 1040.37,267.09 1039.03,268.33 1037.69,269.57 1036.33,270.82 1034.97,272.08 1033.60,273.34 1032.23,274.61 1030.85,275.89 1029.46,277.17 1028.06,278.46 1026.66,279.76 1025.25,281.06 1023.84,282.37 1022.41,283.68 1020.99,285.01 1019.55,286.33 1018.11,287.66 1016.66,289.00 1015.20,290.35 1013.74,291.70 1012.28,293.05 1010.80,294.42 1009.32,295.78 1007.84,297.16 1006.34,298.54 1004.85,299.92 1003.34,301.31 1001.83,302.70 1000.31,304.10 998.79,305.51 997.26,306.92 995.73,308.33 994.19,309.75 992.65,311.18 991.10,312.61 989.54,314.05 987.98,315.48 986.41,316.93 984.84,318.38 983.26,319.83 981.68,321.29 980.09,322.75 978.50,324.22 976.90,325.69 975.29,327.17 973.69,328.65 972.07,330.13 970.45,331.62 968.83,333.11 967.20,334.61 965.57,336.10 963.93,337.61 962.29,339.12 960.64,340.63 958.99,342.14 957.33,343.66 955.67,345.18 954.00,346.71 952.33,348.24 950.66,349.77 948.98,351.30 947.29,352.84 945.61,354.38 943.92,355.93 942.22,357.47 940.52,359.03 938.82,360.58 937.11,362.14 935.40,363.69 933.68,365.26 931.96,366.82 930.24,368.39 928.51,369.96 926.78,371.53 925.05,373.10 923.31,374.68 921.57,376.26 919.83,377.84 918.08,379.42 916.33,381.01 914.57,382.60 912.81,384.19 911.05,385.78 909.29,387.37 907.52,388.97 905.75,390.57 903.98,392.16 902.20,393.76 900.42,395.37 898.64,396.97 896.85,398.57 895.06,400.18 893.27,401.79 891.48,403.40 889.68,405.01 887.89,406.62 886.08,408.23 884.28,409.84 882.47,411.45 880.67,413.07 878.86,414.68 877.04,416.30 875.23,417.92 873.41,419.54 871.59,421.15 869.77,422.77 867.94,424.39 866.12,426.01 864.29,427.63 862.46,429.25 860.63,430.87 858.80,432.49 856.96,434.11 855.13,435.73 853.29,437.35 851.45,438.97 849.61,440.59 847.76,442.21 845.92,443.83 844.07,445.45 842.23,447.07 840.38,448.69 838.53,450.31 836.68,451.92 834.83,453.54 832.97,455.15 831.12,456.77 829.26,458.38 827.41,460.00 826.73,460.59" type="driving"/>
    <lane id="-0_2" index="2" disallow="pedestrian tram rail_urban rail rail_electric rail_fast ship" speed="22.22" length="377.48" width="3.75" shape="1103.96,204.29 1103.16,204.99 1102.34,205.70 1101.51,206.43 1100.68,207.16 1099.83,207.91 1098.97,208.66 1098.10,209.43 1097.23,210.20 1096.34,210.99 1095.44,211.78 1094.54,212.59 1093.62,213.40 1092.69,214.23 1091.76,215.06 1090.81,215.91 1089.86,216.77 1088.89,217.63 1087.92,218.50 1086.94,219.39 1085.94,220.28 1084.94,221.19 1083.93,222.10 1082.91,223.02 1081.88,223.95 1080.84,224.89 1079.79,225.84 1078.74,226.80 1077.67,227.77 1076.60,228.74 1075.51,229.73 1074.42,230.72 1073.32,231.72 1072.21,232.74 1071.09,233.76 1069.97,234.78 1068.83,235.82 1067.69,236.87 1066.54,237.92 1065.38,238.98 1064.21,240.05 1063.03,241.13 1061.85,242.22 1060.65,243.32 1059.45,244.42 1058.24,245.53 1057.02,246.65 1055.80,247.78 1054.56,248.91 1053.32,250.05 1052.07,251.20 1050.82,252.36 1049.55,253.52 1048.28,254.70 1047.00,255.88 1045.71,257.06 1044.41,258.26 1043.11,259.46 1041.80,260.67 1040.48,261.88 1039.16,263.11 1037.83,264.34 1036.49,265.57 1035.14,266.82 1033.79,268.07 1032.43,269.32 1031.06,270.59 1029.68,271.86 1028.30,273.14 1026.91,274.42 1025.52,275.71 1024.12,277.00 1022.71,278.31 1021.29,279.62 1019.87,280.93 1018.44,282.25 1017.00,283.58 1015.56,284.91 1014.11,286.25 1012.66,287.59 1011.20,288.94 1009.73,290.30 1008.26,291.66 1006.78,293.03 1005.29,294.40 1003.80,295.78 1002.30,297.17 1000.80,298.55 999.29,299.95 997.77,301.35 996.25,302.75 994.72,304.16 993.19,305.58 991.65,307.00 990.10,308.42 988.55,309.85 987.00,311.29 985.44,312.73 983.87,314.17 982.30,315.62 980.72,317.07 979.14,318.53 977.55,319.99 975.96,321.46 974.36,322.93 972.76,324.41 971.15,325.89 969.53,327.37 967.91,328.86 966.29,330.35 964.66,331.84 963.03,333.34 961.39,334.85 959.75,336.35 958.10,337.86 956.45,339.38 954.80,340.89 953.13,342.42 951.47,343.94 949.80,345.47 948.13,347.00 946.45,348.53 944.77,350.07 943.08,351.61 941.39,353.16 939.69,354.70 937.99,356.25 936.29,357.81 934.58,359.36 932.87,360.92 931.16,362.48 929.44,364.05 927.72,365.61 925.99,367.18 924.26,368.75 922.53,370.33 920.79,371.90 919.05,373.48 917.31,375.06 915.56,376.65 913.81,378.23 912.06,379.82 910.30,381.41 908.54,383.00 906.77,384.59 905.01,386.18 903.24,387.78 901.47,389.38 899.69,390.98 897.91,392.58 896.13,394.18 894.35,395.78 892.56,397.39 890.77,399.00 888.98,400.60 887.18,402.21 885.38,403.82 883.58,405.43 881.78,407.05 879.98,408.66 878.17,410.27 876.36,411.89 874.55,413.50 872.73,415.12 870.92,416.73 869.10,418.35 867.28,419.97 865.46,421.59 863.63,423.20 861.80,424.82 859.98,426.44 858.15,428.06 856.31,429.68 854.48,431.30 852.65,432.92 850.81,434.54 848.97,436.16 847.13,437.78 845.29,439.39 843.45,441.01 841.60,442.63 839.76,444.25 837.91,445.87 836.06,447.48 834.21,449.10 832.36,450.71 830.51,452.33 828.66,453.94 826.80,455.55 824.95,457.17 824.27,457.75" type="driving"/>
  </edge>
  <edge id="-1" from="0" to="2.1" priority="1" type="driving" shape="820.01,458.97 818.43,460.33 816.85,461.70 815.28,463.06 813.70,464.43 812.12,465.79 810.54,467.15 808.96,468.51 807.38,469.87 805.80,471.23 804.22,472.59 802.64,473.94 801.06,475.30 799.48,476.65 797.90,478.00 796.31,479.35 794.73,480.70 793.15,482.05 791.57,483.40 789.99,484.74 788.41,486.08 786.82,487.43 785.24,488.77 783.66,490.11 782.08,491.44 780.50,492.78 778.92,494.11 777.34,495.44 775.76,496.77 774.18,498.10 772.60,499.43 771.02,500.75 769.44,502.07 767.86,503.39 766.28,504.71 764.70,506.03 763.13,507.34 761.55,508.65 759.97,509.96 758.40,511.27 756.82,512.58 755.25,513.88 753.68,515.18 752.10,516.48 750.53,517.77 748.96,519.06 747.39,520.35 745.82,521.64 744.25,522.93 742.68,524.21 741.12,525.49 739.55,526.77 737.98,528.04 736.42,529.31 734.86,530.58 733.30,531.85 731.74,533.11 730.18,534.37 728.62,535.63 727.06,536.89 725.50,538.14 723.95,539.39 722.40,540.63 720.84,541.87 719.29,543.11 717.74,544.35 716.20,545.58 714.65,546.81 713.10,548.03 711.56,549.26 710.02,550.48 708.48,551.69 706.94,552.90 705.40,554.11 703.87,555.32 702.33,556.52 700.80,557.71 699.27,558.91 697.74,560.10 696.22,561.29 694.69,562.47 693.17,563.65 691.65,564.82 690.13,565.99 688.61,567.16 687.09,568.32 685.58,569.48 684.07,570.64 682.56,571.79 681.05,572.93 679.55,574.08 678.05,575.22 676.55,576.35 675.05,577.48 673.55,578.61 672.06,579.73 670.57,580.84 669.08,581.96 667.59,583.06 666.11,584.17 664.63,585.27 663.15,586.36 661.67,587.45 660.20,588.53 658.72,589.62 657.26,590.69 655.79,591.76 654.33,592.83">
    <lane id="-1_0" index="0" disallow="pedestrian tram rail_urban rail rail_electric rail_fast ship" speed="22.22" length="185.28" width="3.75" shape="804.83,484.41 803.99,485.13 802.40,486.48 800.82,487.84 799.23,489.19 797.65,490.54 796.06,491.89 794.47,493.23 792.89,494.58 791.30,495.92 789.72,497.26 788.13,498.60 786.55,499.94 784.96,501.28 783.38,502.61 781.79,503.95 780.21,505.28 778.62,506.61 777.04,507.94 775.46,509.26 773.87,510.59 772.29,511.91 770.71,513.23 769.13,514.55 767.54,515.86 765.96,517.18 764.38,518.49 762.80,519.80 761.22,521.10 759.65,522.41 758.07,523.71 756.49,525.01 754.91,526.31 753.34,527.60 751.76,528.89 750.19,530.18 748.62,531.47 747.04,532.75 745.47,534.04 743.90,535.31 742.33,536.59 740.76,537.86 739.20,539.13 737.63,540.40 736.07,541.67 734.50,542.93 732.94,544.19 731.38,545.44 729.82,546.70 728.26,547.95 726.70,549.19 725.14,550.44 723.59,551.68 722.03,552.92 720.48,554.15 718.93,555.38 717.38,556.61 715.83,557.83 714.28,559.05 712.74,560.27 711.19,561.48 709.65,562.69 708.11,563.90 706.57,565.10 705.03,566.30 703.50,567.50 701.96,568.69 700.43,569.88 698.90,571.06 697.37,572.24 695.85,573.42 694.32,574.59 692.80,575.76 691.28,576.93 689.76,578.09 688.24,579.25 686.73,580.40 685.21,581.55 683.70,582.69 682.20,583.83 680.69,584.97 679.18,586.10 677.68,587.23 676.18,588.35 674.69,589.47 673.19,590.58 671.70,591.69 670.21,592.80 668.72,593.90 667.23,595.00 665.75,596.09 664.27,597.18 662.79,598.26 661.31,599.34 659.96,600.32" type="driving"/>
    <lane id="-1_1" index="1" disallow="pedestrian tram rail_urban rail rail_electric rail_fast ship" speed="22.22" length="185.28" width="3.75" shape="802.39,481.56 801.55,482.28 799.97,483.63 798.38,484.98 796.80,486.33 795.22,487.68 793.63,489.03 792.05,490.37 790.46,491.72 788.88,493.06 787.30,494.40 785.71,495.74 784.13,497.08 782.54,498.41 780.96,499.75 779.38,501.08 777.80,502.41 776.21,503.74 774.63,505.06 773.05,506.39 771.47,507.71 769.89,509.03 768.31,510.35 766.73,511.66 765.15,512.98 763.57,514.29 761.99,515.60 760.41,516.91 758.83,518.21 757.26,519.52 755.68,520.82 754.11,522.11 752.53,523.41 750.96,524.70 749.39,525.99 747.81,527.28 746.24,528.57 744.67,529.85 743.10,531.13 741.54,532.41 739.97,533.68 738.40,534.95 736.84,536.22 735.27,537.49 733.71,538.75 732.15,540.01 730.59,541.27 729.03,542.52 727.47,543.77 725.91,545.02 724.36,546.27 722.80,547.51 721.25,548.75 719.70,549.98 718.15,551.21 716.60,552.44 715.05,553.67 713.51,554.89 711.96,556.11 710.42,557.32 708.88,558.53 707.34,559.74 705.80,560.95 704.26,562.15 702.73,563.35 701.20,564.54 699.66,565.73 698.14,566.91 696.61,568.10 695.08,569.28 693.56,570.45 692.04,571.62 690.52,572.79 689.00,573.95 687.48,575.11 685.97,576.26 684.46,577.41 682.95,578.56 681.44,579.70 679.94,580.84 678.43,581.97 676.93,583.10 675.43,584.23 673.94,585.35 672.44,586.46 670.95,587.58 669.46,588.68 667.97,589.79 666.49,590.88 665.01,591.98 663.53,593.07 662.05,594.15 660.58,595.23 659.10,596.31 657.76,597.29" type="driving"/>
    <lane id="-1_2" index="2" disallow="pedestrian tram rail_urban rail rail_electric rail_fast ship" speed="22.22" length="185.28" width="3.75" shape="799.95,478.71 799.11,479.43 797.53,480.78 795.95,482.13 794.37,483.48 792.78,484.82 791.20,486.17 789.62,487.51 788.04,488.86 786.46,490.20 784.87,491.54 783.29,492.87 781.71,494.21 780.13,495.55 778.55,496.88 776.96,498.21 775.38,499.54 773.80,500.86 772.22,502.19 770.64,503.51 769.06,504.83 767.48,506.15 765.90,507.47 764.33,508.78 762.75,510.10 761.17,511.41 759.60,512.71 758.02,514.02 756.44,515.32 754.87,516.62 753.30,517.92 751.72,519.22 750.15,520.51 748.58,521.80 747.01,523.09 745.44,524.38 743.87,525.66 742.30,526.94 740.73,528.22 739.17,529.50 737.60,530.77 736.04,532.04 734.48,533.31 732.91,534.57 731.35,535.83 729.79,537.09 728.24,538.35 726.68,539.60 725.12,540.85 723.57,542.09 722.01,543.34 720.46,544.58 718.91,545.81 717.36,547.05 715.82,548.28 714.27,549.50 712.72,550.73 711.18,551.95 709.64,553.16 708.10,554.38 706.56,555.59 705.02,556.79 703.49,557.99 701.96,559.19 700.42,560.39 698.89,561.58 697.37,562.77 695.84,563.95 694.31,565.13 692.79,566.31 691.27,567.48 689.75,568.65 688.24,569.81 686.72,570.97 685.21,572.13 683.70,573.28 682.19,574.43 680.68,575.57 679.18,576.71 677.68,577.85 676.18,578.98 674.68,580.10 673.18,581.23 671.69,582.35 670.20,583.46 668.71,584.57 667.23,585.67 665.74,586.77 664.26,587.87 662.78,588.96 661.31,590.05 659.83,591.13 658.36,592.20 656.89,593.28 655.55,594.26" type="driving"/>
  </edge>