<?xml version='1.0' encoding='UTF-8'?>
<!-- generated on 2022-09-06 03:25:47 by Eclipse SUMO netconvert Version 1.13.0
<configuration xmlns:xsi="http://www.w3.org/2001/XMLSchema-instance" xsi:noNamespaceSchemaLocation="http://sumo.dlr.de/xsd/netconvertConfiguration.xsd">

    <input>
        <opendrive-files value="map\15\11367357\11367357.xodr"/>
    </input>

    <output>
        <output-file value="C:\Users\LinGe\AppData\Local\Temp\tmp28ybtan8\11367357.net.xml"/>
    </output>

    <processing>
        <geometry.max-grade.fix value="false"/>
    </processing>

    <tls_building>
        <tls.left-green.time value="0"/>
    </tls_building>

    <junctions>
        <rectangular-lane-cut value="true"/>
    </junctions>

    <report>
        <aggregate-warnings value="5"/>
    </report>

</configuration>
-->
<net xmlns:xsi="http://www.w3.org/2001/XMLSchema-instance" version="1.9" junctionCornerDetail="5" rectangularLaneCut="true" limitTurnSpeed="5.50" xsi:noNamespaceSchemaLocation="http://sumo.dlr.de/xsd/net_file.xsd">
  <location netOffset="201.55,201.27" convBoundary="0.00,0.00,1102.63,1185.87" origBoundary="-201.55,-201.27,901.09,984.60" projParameter="!"/>
  <type id="bidirectional" priority="1" speed="1.39" disallow="pedestrian tram rail_urban rail rail_electric rail_fast ship" width="3.65"/>
  <type id="border" priority="0" speed="1.39" disallow="all" discard="1" width="0.10"/>
  <type id="driving" priority="1" speed="13.89" disallow="pedestrian tram rail_urban rail rail_electric rail_fast ship" width="3.65"/>
  <type id="entry" priority="1" speed="22.22" disallow="pedestrian tram rail_urban rail rail_electric rail_fast ship" width="3.65"/>
  <type id="exit" priority="1" speed="22.22" disallow="pedestrian tram rail_urban rail rail_electric rail_fast ship" width="3.65"/>
  <type id="median" priority="0" speed="1.39" disallow="all" discard="1" width="0.10"/>
  <type id="mwyEntry" priority="1" speed="22.22" allow="private emergency authority army vip passenger hov taxi bus coach delivery truck trailer motorcycle evehicle custom1 custom2" width="3.65"/>
  <type id="mwyExit" priority="1" speed="22.22" allow="private emergency authority army vip passenger hov taxi bus coach delivery truck trailer motorcycle evehicle custom1 custom2" width="3.65"/>
  <type id="none" priority="0" speed="1.39" disallow="all" discard="1" width="1.00"/>
  <type id="offRamp" priority="1" speed="22.22" allow="private emergency authority army vip passenger hov taxi bus coach delivery truck trailer motorcycle evehicle custom1 custom2" width="3.65"/>
  <type id="onRamp" priority="1" speed="22.22" allow="private emergency authority army vip passenger hov taxi bus coach delivery truck trailer motorcycle evehicle custom1 custom2" width="3.65"/>
  <type id="parking" priority="1" speed="1.39" disallow="pedestrian tram rail_urban rail rail_electric rail_fast ship" width="2.50"/>
  <type id="rail" priority="3" speed="33.33" allow="rail_urban rail rail_electric rail_fast" width="3.65"/>
  <type id="restricted" priority="0" speed="13.89" disallow="all" width="3.65"/>
  <type id="roadWorks" priority="0" speed="1.39" allow="authority" width="3.65"/>
  <type id="shoulder" priority="0" speed="1.39" disallow="all" discard="1" width="1.00"/>
  <type id="special1" priority="1" speed="22.22" allow="custom1" discard="1" width="3.65"/>
  <type id="special2" priority="1" speed="22.22" allow="custom2" discard="1" width="3.65"/>
  <type id="special3" priority="1" speed="22.22" allow="custom1 custom2" discard="1" width="3.65"/>
  <type id="stop" priority="1" speed="13.89" disallow="pedestrian tram rail_urban rail rail_electric rail_fast ship" width="3.65"/>
  <type id="tram" priority="2" speed="13.89" allow="tram" width="3.65"/>
  <edge id=":0_0" function="internal">
    <lane id=":0_0_0" index="0" disallow="pedestrian tram rail_urban rail rail_electric rail_fast ship" speed="15.21" length="18.84" width="3.75" shape="798.08,650.56 792.93,653.82,0.01 789.38,657.12,0.01 787.01,660.47,0.02 785.44,663.93,0.03"/>
  </edge>
  <edge id=":0_1" function="internal">
    <lane id=":0_1_0" index="0" disallow="pedestrian tram rail_urban rail rail_electric rail_fast ship" speed="22.22" length="19.49" width="3.75" shape="798.08,650.56 781.01,659.86"/>
    <lane id=":0_1_1" index="1" disallow="pedestrian tram rail_urban rail rail_electric rail_fast ship" speed="22.22" length="19.49" width="3.75" shape="796.30,647.25 779.19,656.58"/>
    <lane id=":0_1_2" index="2" disallow="pedestrian tram rail_urban rail rail_electric rail_fast ship" speed="22.22" length="19.49" width="3.75" shape="794.53,643.95 777.38,653.30"/>
  </edge>
  <edge id=":1_0" function="internal">
    <lane id=":1_0_0" index="0" disallow="pedestrian tram rail_urban rail rail_electric rail_fast ship" speed="15.28" length="146.43" width="3.75" shape="317.13,981.15 425.85,883.06"/>
  </edge>
  <edge id=":1_1" function="internal">
    <lane id=":1_1_0" index="0" disallow="pedestrian tram rail_urban rail rail_electric rail_fast ship" speed="22.22" length="146.58" width="3.75" shape="317.13,981.15 428.64,885.95"/>
    <lane id=":1_1_1" index="1" disallow="pedestrian tram rail_urban rail rail_electric rail_fast ship" speed="22.22" length="146.58" width="3.75" shape="319.57,984.00 431.05,888.83"/>
    <lane id=":1_1_2" index="2" disallow="pedestrian tram rail_urban rail rail_electric rail_fast ship" speed="22.22" length="146.58" width="3.75" shape="322.02,986.84 433.46,891.70"/>
  </edge>
  <edge id=":11.10_0" function="internal">
    <lane id=":11.10_0_0" index="0" disallow="pedestrian tram rail_urban rail rail_electric rail_fast ship" speed="22.22" length="0.30" width="3.75" shape="285.78,287.58,20.00 285.59,287.35,20.00"/>
    <lane id=":11.10_0_1" index="1" disallow="pedestrian tram rail_urban rail rail_electric rail_fast ship" speed="22.22" length="0.30" width="3.75" shape="288.68,285.20,20.00 288.49,284.97,20.00"/>
    <lane id=":11.10_0_2" index="2" disallow="pedestrian tram rail_urban rail rail_electric rail_fast ship" speed="22.22" length="0.30" width="3.75" shape="291.59,282.83,20.00 291.39,282.59,20.00"/>
  </edge>
  <edge id=":14.13_0" function="internal">
    <lane id=":14.13_0_0" index="0" disallow="pedestrian tram rail_urban rail rail_electric rail_fast ship" speed="8.33" length="0.27" width="3.75" shape="555.40,703.45,13.12 555.47,703.19,13.14"/>
  </edge>
  <edge id=":16.15_0" function="internal">
    <lane id=":16.15_0_0" index="0" disallow="pedestrian tram rail_urban rail rail_electric rail_fast ship" speed="11.11" length="0.34" width="3.75" shape="571.44,620.64,14.07 571.10,620.61,14.09"/>
  </edge>
  <edge id=":19.18_0" function="internal">
    <lane id=":19.18_0_0" index="0" disallow="pedestrian tram rail_urban rail rail_electric rail_fast ship" speed="11.11" length="0.29" width="3.75" shape="675.99,917.96,6.54 675.71,918.04,6.54"/>
  </edge>
  <edge id=":2_0" function="internal">
    <lane id=":2_0_0" index="0" disallow="pedestrian tram rail_urban rail rail_electric rail_fast ship" speed="16.67" length="7.98" width="3.75" shape="459.21,541.82,20.00 463.23,548.72,20.00"/>
  </edge>
  <edge id=":2.1_0" function="internal">
    <lane id=":2.1_0_0" index="0" disallow="pedestrian tram rail_urban rail rail_electric rail_fast ship" speed="22.22" length="0.30" width="3.75" shape="697.47,709.87 697.23,710.03"/>
    <lane id=":2.1_0_1" index="1" disallow="pedestrian tram rail_urban rail rail_electric rail_fast ship" speed="22.22" length="0.30" width="3.75" shape="695.44,706.72 695.19,706.88"/>
    <lane id=":2.1_0_2" index="2" disallow="pedestrian tram rail_urban rail rail_electric rail_fast ship" speed="22.22" length="0.30" width="3.75" shape="693.40,703.57 693.15,703.74"/>
  </edge>
  <edge id=":21.20_0" function="internal">
    <lane id=":21.20_0_0" index="0" disallow="pedestrian tram rail_urban rail rail_electric rail_fast ship" speed="16.67" length="0.30" width="3.75" shape="1063.93,1051.91,7.07 1063.78,1052.16,7.07"/>
  </edge>
  <edge id=":3_0" function="internal">
    <lane id=":3_0_0" index="0" disallow="pedestrian tram rail_urban rail rail_electric rail_fast ship" speed="15.28" length="8.01" width="3.75" shape="443.96,560.59,20.00 439.86,553.70,20.00"/>
  </edge>
  <edge id=":4_0" function="internal">
    <lane id=":4_0_0" index="0" disallow="pedestrian tram rail_urban rail rail_electric rail_fast ship" speed="16.67" length="83.91" width="3.75" shape="816.80,610.39,0.00 894.20,577.99"/>
  </edge>
  <edge id=":4_1" function="internal">
    <lane id=":4_1_0" index="0" disallow="pedestrian tram rail_urban rail rail_electric rail_fast ship" speed="22.22" length="83.52" width="3.75" shape="818.71,614.13 894.20,577.99"/>
    <lane id=":4_1_1" index="1" disallow="pedestrian tram rail_urban rail rail_electric rail_fast ship" speed="22.22" length="83.52" width="3.75" shape="820.41,617.47 895.74,581.41"/>
    <lane id=":4_1_2" index="2" disallow="pedestrian tram rail_urban rail rail_electric rail_fast ship" speed="22.22" length="83.52" width="3.75" shape="822.11,620.82 897.29,584.82"/>
  </edge>
  <edge id=":5_0" function="internal">
    <lane id=":5_0_0" index="0" disallow="pedestrian tram rail_urban rail rail_electric rail_fast ship" speed="13.89" length="27.91" width="3.75" shape="571.30,620.63,14.09 599.06,623.50,13.99"/>
  </edge>
  <edge id=":5_1" function="internal">
    <lane id=":5_1_0" index="0" disallow="pedestrian tram rail_urban rail rail_electric rail_fast ship" speed="11.11" length="28.64" width="3.75" shape="571.30,620.63,14.09 577.07,621.70,14.07 585.26,623.73,14.05 593.40,626.01,14.02 599.01,627.79,14.00"/>
  </edge>
  <edge id=":6_0" function="internal">
    <lane id=":6_0_0" index="0" disallow="pedestrian tram rail_urban rail rail_electric rail_fast ship" speed="8.33" length="39.93" width="3.75" shape="541.44,741.17,12.98 544.32,734.10,13.00 548.66,722.57,13.04 552.86,710.98,13.07 555.31,703.74,13.10"/>
  </edge>
  <edge id=":6_1" function="internal">
    <lane id=":6_1_0" index="0" disallow="pedestrian tram rail_urban rail rail_electric rail_fast ship" speed="9.72" length="39.43" width="3.75" shape="545.54,741.94,12.84 555.31,703.74,13.10"/>
  </edge>
  <edge id=":6.5_0" function="internal">
    <lane id=":6.5_0_0" index="0" disallow="pedestrian tram rail_urban rail rail_electric rail_fast ship" speed="22.22" length="0.30" width="3.75" shape="684.86,690.93 685.12,690.77"/>
    <lane id=":6.5_0_1" index="1" disallow="pedestrian tram rail_urban rail rail_electric rail_fast ship" speed="22.22" length="0.30" width="3.75" shape="686.90,694.08 687.15,693.92"/>
    <lane id=":6.5_0_2" index="2" disallow="pedestrian tram rail_urban rail rail_electric rail_fast ship" speed="22.22" length="0.30" width="3.75" shape="688.94,697.23 689.19,697.07"/>
  </edge>
  <edge id=":7_0" function="internal">
    <lane id=":7_0_0" index="0" disallow="pedestrian tram rail_urban rail rail_electric rail_fast ship" speed="10.75" length="17.08" width="3.75" shape="395.51,956.30,0.00 390.84,954.82,0.00 386.59,954.54,0.00 382.78,955.46,0.00 379.39,957.58"/>
  </edge>
  <edge id=":7_1" function="internal">
    <lane id=":7_1_0" index="0" disallow="pedestrian tram rail_urban rail rail_electric rail_fast ship" speed="22.22" length="14.49" width="3.75" shape="390.39,948.16 379.39,957.58"/>
    <lane id=":7_1_1" index="1" disallow="pedestrian tram rail_urban rail rail_electric rail_fast ship" speed="22.22" length="14.49" width="3.75" shape="387.95,945.31 376.95,954.73"/>
    <lane id=":7_1_2" index="2" disallow="pedestrian tram rail_urban rail rail_electric rail_fast ship" speed="22.22" length="14.49" width="3.75" shape="385.52,942.46 374.51,951.89"/>
  </edge>
  <edge id=":9.8_0" function="internal">
    <lane id=":9.8_0_0" index="0" disallow="pedestrian tram rail_urban rail rail_electric rail_fast ship" speed="22.22" length="0.30" width="3.75" shape="303.19,272.94,20.00 303.39,273.18,20.00"/>
    <lane id=":9.8_0_1" index="1" disallow="pedestrian tram rail_urban rail rail_electric rail_fast ship" speed="22.22" length="0.30" width="3.75" shape="300.29,275.32,20.00 300.48,275.55,20.00"/>
    <lane id=":9.8_0_2" index="2" disallow="pedestrian tram rail_urban rail rail_electric rail_fast ship" speed="22.22" length="0.30" width="3.75" shape="297.39,277.69,20.00 297.58,277.92,20.00"/>
  </edge>
  <edge id="-0" from="0.begin" to="0" priority="1" type="driving" shape="1102.63,502.95 1101.37,503.56 1100.10,504.17 1098.82,504.78 1097.54,505.39 1096.24,506.00 1094.94,506.62 1093.63,507.23 1092.31,507.84 1090.99,508.46 1089.65,509.08 1088.31,509.69 1086.96,510.31 1085.61,510.93 1084.24,511.55 1082.87,512.17 1081.49,512.79 1080.10,513.41 1078.70,514.03 1077.30,514.66 1075.89,515.28 1074.47,515.91 1073.04,516.54 1071.61,517.16 1070.17,517.79 1068.72,518.42 1067.26,519.06 1065.80,519.69 1064.33,520.33 1062.85,520.96 1061.37,521.60 1059.87,522.24 1058.37,522.88 1056.87,523.52 1055.35,524.17 1053.83,524.81 1052.30,525.46 1050.76,526.11 1049.22,526.76 1047.67,527.41 1046.11,528.07 1044.55,528.72 1042.98,529.38 1041.40,530.04 1039.81,530.70 1038.22,531.37 1036.62,532.03 1035.02,532.70 1033.41,533.37 1031.79,534.04 1030.16,534.72 1028.53,535.40 1026.89,536.07 1025.24,536.76 1023.59,537.44 1021.93,538.12 1020.27,538.81 1018.59,539.50 1016.91,540.20 1015.23,540.89 1013.54,541.59 1011.84,542.29 1010.13,542.99 1008.42,543.70 1006.71,544.41 1004.98,545.12 1003.25,545.83 1001.52,546.55 999.77,547.27 998.02,547.99 996.27,548.71 994.51,549.44 992.74,550.17 990.97,550.91 989.19,551.64 987.40,552.38 985.61,553.13 983.82,553.87 982.01,554.62 980.20,555.37 978.39,556.13 976.57,556.89 974.74,557.65 972.91,558.42 971.07,559.19 969.23,559.96 967.38,560.73 965.52,561.51 963.66,562.30 961.79,563.08 959.92,563.87 958.04,564.67 956.16,565.46 954.27,566.26 952.38,567.07 950.48,567.88 948.57,568.69 946.66,569.51 944.74,570.32 942.82,571.15 940.90,571.98 938.96,572.81 937.03,573.64 935.08,574.48 933.14,575.33 931.18,576.18 929.23,577.03 927.26,577.88 925.29,578.74 923.32,579.61 921.34,580.48 919.36,581.35 917.37,582.23 915.38,583.11 913.38,584.00 911.38,584.89 909.37,585.78 907.36,586.68 905.34,587.59 903.32,588.50 901.29,589.41 899.26,590.33 897.22,591.25 895.18,592.18 893.13,593.11 891.08,594.05 889.03,595.00 886.97,595.94 884.91,596.90 882.84,597.85 880.76,598.81 878.69,599.78 876.60,600.75 874.52,601.73 872.43,602.72 870.33,603.70 868.23,604.70 866.13,605.69 864.02,606.70 861.91,607.71 859.80,608.72 857.68,609.74 855.55,610.77 853.42,611.80 851.29,612.83 849.16,613.88 847.01,614.92 844.87,615.98 842.72,617.03 840.57,618.10 838.41,619.17 836.25,620.24 834.09,621.33 831.92,622.41 829.75,623.51 827.58,624.61 825.40,625.71 823.22,626.82 821.03,627.94 818.84,629.06 816.65,630.19 814.45,631.33 812.25,632.47 810.05,633.62 807.84,634.77 805.63,635.93 803.41,637.10 801.20,638.27 798.97,639.45 796.75,640.63 794.52,641.82 792.29,643.02 790.06,644.23">
    <lane id="-0_0" index="0" disallow="pedestrian tram rail_urban rail rail_electric rail_fast ship" speed="22.22" length="338.87" width="3.75" shape="1106.72,511.38 1105.45,512.00 1104.16,512.62 1102.86,513.24 1101.56,513.86 1100.25,514.48 1098.93,515.10 1097.60,515.72 1096.27,516.35 1094.93,516.97 1093.58,517.59 1092.22,518.21 1090.86,518.84 1089.49,519.46 1088.11,520.09 1086.72,520.71 1085.33,521.34 1083.93,521.97 1082.52,522.60 1081.10,523.23 1079.68,523.86 1078.25,524.49 1076.81,525.12 1075.37,525.75 1073.92,526.39 1072.46,527.02 1070.99,527.66 1069.52,528.30 1068.04,528.94 1066.55,529.58 1065.06,530.22 1063.56,530.86 1062.05,531.50 1060.54,532.15 1059.02,532.80 1057.49,533.45 1055.95,534.10 1054.41,534.75 1052.86,535.40 1051.31,536.06 1049.74,536.71 1048.17,537.37 1046.60,538.03 1045.01,538.69 1043.43,539.36 1041.83,540.02 1040.23,540.69 1038.62,541.36 1037.00,542.03 1035.38,542.70 1033.75,543.38 1032.12,544.06 1030.47,544.74 1028.83,545.42 1027.17,546.10 1025.51,546.79 1023.84,547.48 1022.17,548.17 1020.49,548.86 1018.80,549.56 1017.11,550.26 1015.41,550.96 1013.71,551.66 1012.00,552.37 1010.28,553.07 1008.56,553.78 1006.83,554.50 1005.09,555.21 1003.35,555.93 1001.60,556.65 999.85,557.38 998.09,558.11 996.33,558.84 994.55,559.57 992.78,560.31 990.99,561.04 989.21,561.79 987.41,562.53 985.61,563.28 983.80,564.03 981.99,564.78 980.18,565.54 978.35,566.30 976.52,567.07 974.69,567.83 972.85,568.60 971.00,569.38 969.15,570.16 967.30,570.94 965.43,571.72 963.57,572.51 961.69,573.30 959.82,574.10 957.93,574.89 956.04,575.70 954.15,576.50 952.25,577.31 950.34,578.13 948.43,578.94 946.52,579.76 944.60,580.59 942.67,581.42 940.74,582.25 938.81,583.09 936.87,583.93 934.92,584.77 932.97,585.62 931.01,586.47 929.05,587.33 927.09,588.19 925.12,589.06 923.14,589.93 921.16,590.80 919.18,591.68 917.19,592.56 915.19,593.45 913.19,594.34 911.19,595.24 909.18,596.14 907.16,597.05 905.15,597.96 903.12,598.87 901.10,599.79 899.06,600.71 897.03,601.64 894.99,602.58 892.94,603.51 890.89,604.46 888.84,605.41 886.78,606.36 884.72,607.32 882.65,608.28 880.58,609.25 878.50,610.22 876.42,611.20 874.34,612.18 872.25,613.17 870.16,614.16 868.06,615.16 865.96,616.16 863.85,617.17 861.75,618.19 859.63,619.21 857.52,620.23 855.39,621.26 853.27,622.30 851.14,623.34 849.01,624.39 846.87,625.44 844.73,626.50 842.59,627.56 840.44,628.63 838.29,629.71 836.13,630.79 833.97,631.88 831.81,632.97 829.65,634.07 827.48,635.17 825.30,636.28 823.12,637.40 820.94,638.52 818.76,639.65 816.57,640.79 814.38,641.93 812.19,643.07 809.99,644.23 807.79,645.39 805.58,646.55 803.38,647.72 801.17,648.90 798.95,650.09 798.08,650.56" type="driving"/>
    <lane id="-0_1" index="1" disallow="pedestrian tram rail_urban rail rail_electric rail_fast ship" speed="22.22" length="338.87" width="3.75" shape="1105.08,508.01 1103.82,508.62 1102.54,509.24 1101.25,509.86 1099.95,510.47 1098.65,511.09 1097.33,511.71 1096.01,512.33 1094.69,512.94 1093.35,513.56 1092.01,514.18 1090.66,514.80 1089.30,515.43 1087.93,516.05 1086.56,516.67 1085.18,517.29 1083.79,517.92 1082.40,518.54 1080.99,519.17 1079.58,519.80 1078.16,520.43 1076.74,521.06 1075.31,521.69 1073.87,522.32 1072.42,522.95 1070.96,523.58 1069.50,524.22 1068.03,524.85 1066.56,525.49 1065.07,526.13 1063.58,526.77 1062.09,527.41 1060.58,528.05 1059.07,528.70 1057.55,529.35 1056.02,529.99 1054.49,530.64 1052.95,531.29 1051.40,531.94 1049.85,532.60 1048.29,533.25 1046.72,533.91 1045.15,534.57 1043.57,535.23 1041.98,535.90 1040.39,536.56 1038.79,537.23 1037.18,537.90 1035.56,538.57 1033.94,539.24 1032.32,539.92 1030.68,540.59 1029.04,541.27 1027.39,541.95 1025.74,542.64 1024.08,543.32 1022.41,544.01 1020.74,544.70 1019.06,545.40 1017.37,546.09 1015.68,546.79 1013.98,547.49 1012.28,548.19 1010.57,548.90 1008.85,549.61 1007.13,550.32 1005.40,551.03 1003.66,551.75 1001.92,552.47 1000.17,553.19 998.42,553.91 996.66,554.64 994.89,555.37 993.12,556.10 991.34,556.84 989.56,557.58 987.77,558.32 985.97,559.07 984.17,559.82 982.36,560.57 980.55,561.32 978.73,562.08 976.91,562.84 975.08,563.61 973.24,564.37 971.40,565.15 969.55,565.92 967.70,566.70 965.84,567.48 963.98,568.27 962.11,569.05 960.23,569.85 958.35,570.64 956.47,571.44 954.58,572.25 952.68,573.05 950.78,573.86 948.87,574.68 946.96,575.50 945.04,576.32 943.12,577.14 941.19,577.97 939.26,578.81 937.32,579.65 935.37,580.49 933.43,581.33 931.47,582.18 929.51,583.04 927.55,583.90 925.58,584.76 923.61,585.63 921.63,586.50 919.64,587.37 917.66,588.25 915.66,589.14 913.67,590.03 911.66,590.92 909.65,591.82 907.64,592.72 905.63,593.63 903.60,594.54 901.58,595.45 899.55,596.38 897.51,597.30 895.47,598.23 893.43,599.17 891.38,600.11 889.32,601.05 887.27,602.00 885.20,602.96 883.14,603.92 881.06,604.88 878.99,605.85 876.91,606.82 874.82,607.80 872.74,608.79 870.64,609.78 868.55,610.77 866.45,611.78 864.34,612.78 862.23,613.79 860.12,614.81 858.00,615.83 855.88,616.86 853.75,617.89 851.62,618.93 849.49,619.97 847.35,621.02 845.21,622.08 843.07,623.14 840.92,624.21 838.77,625.28 836.61,626.36 834.45,627.44 832.29,628.53 830.12,629.62 827.95,630.73 825.77,631.83 823.59,632.95 821.41,634.07 819.23,635.19 817.04,636.32 814.84,637.46 812.65,638.60 810.45,639.75 808.24,640.91 806.04,642.07 803.83,643.24 801.62,644.41 799.40,645.60 797.18,646.78 796.30,647.25" type="driving"/>
    <lane id="-0_2" index="2" disallow="pedestrian tram rail_urban rail rail_electric rail_fast ship" speed="22.22" length="338.87" width="3.75" shape="1103.45,504.63 1102.19,505.24 1100.91,505.86 1099.63,506.47 1098.34,507.08 1097.05,507.70 1095.74,508.31 1094.43,508.93 1093.11,509.54 1091.78,510.16 1090.44,510.78 1089.09,511.40 1087.74,512.01 1086.38,512.63 1085.01,513.25 1083.64,513.88 1082.26,514.50 1080.86,515.12 1079.47,515.75 1078.06,516.37 1076.65,517.00 1075.23,517.62 1073.80,518.25 1072.36,518.88 1070.92,519.51 1069.47,520.14 1068.01,520.78 1066.54,521.41 1065.07,522.05 1063.59,522.69 1062.10,523.32 1060.61,523.96 1059.11,524.61 1057.60,525.25 1056.08,525.89 1054.56,526.54 1053.03,527.19 1051.49,527.84 1049.95,528.49 1048.40,529.14 1046.84,529.80 1045.27,530.45 1043.70,531.11 1042.12,531.77 1040.54,532.43 1038.94,533.10 1037.34,533.77 1035.74,534.43 1034.13,535.10 1032.51,535.78 1030.88,536.45 1029.25,537.13 1027.61,537.81 1025.96,538.49 1024.31,539.17 1022.65,539.86 1020.98,540.55 1019.31,541.24 1017.63,541.93 1015.94,542.62 1014.25,543.32 1012.55,544.02 1010.85,544.73 1009.14,545.43 1007.42,546.14 1005.70,546.85 1003.97,547.56 1002.23,548.28 1000.49,549.00 998.74,549.72 996.99,550.45 995.23,551.18 993.46,551.91 991.69,552.64 989.91,553.38 988.12,554.12 986.33,554.86 984.53,555.60 982.73,556.35 980.92,557.11 979.11,557.86 977.29,558.62 975.46,559.38 973.63,560.15 971.79,560.92 969.95,561.69 968.10,562.46 966.25,563.24 964.39,564.02 962.52,564.81 960.65,565.60 958.77,566.39 956.89,567.19 955.00,567.99 953.11,568.79 951.21,569.60 949.31,570.41 947.40,571.23 945.48,572.05 943.56,572.87 941.64,573.70 939.71,574.53 937.77,575.37 935.83,576.20 933.88,577.05 931.93,577.89 929.97,578.75 928.01,579.60 926.05,580.46 924.07,581.33 922.10,582.19 920.12,583.07 918.13,583.94 916.14,584.83 914.14,585.71 912.14,586.60 910.13,587.50 908.12,588.40 906.11,589.30 904.09,590.21 902.06,591.12 900.03,592.04 898.00,592.96 895.96,593.89 893.91,594.82 891.86,595.76 889.81,596.70 887.75,597.65 885.69,598.60 883.63,599.55 881.55,600.51 879.48,601.48 877.40,602.45 875.32,603.43 873.23,604.41 871.13,605.40 869.04,606.39 866.94,607.39 864.83,608.39 862.72,609.40 860.61,610.41 858.49,611.43 856.37,612.46 854.24,613.48 852.11,614.52 849.98,615.56 847.84,616.61 845.70,617.66 843.55,618.72 841.40,619.78 839.25,620.85 837.09,621.92 834.93,623.00 832.77,624.09 830.60,625.18 828.42,626.28 826.25,627.38 824.07,628.49 821.88,629.61 819.70,630.73 817.51,631.86 815.31,632.99 813.11,634.13 810.91,635.28 808.71,636.43 806.50,637.59 804.29,638.75 802.07,639.93 799.85,641.10 797.63,642.29 795.41,643.48 794.53,643.95" type="driving"/>
  </edge>
  <edge id="-1" from="0" to="2.1" priority="1" type="driving" shape="790.06,644.23 788.38,645.13 786.71,646.04 785.04,646.95 783.36,647.87 781.68,648.79 780.00,649.71 778.32,650.64 776.63,651.57 774.95,652.50 773.26,653.44 771.57,654.38 769.88,655.33 768.19,656.28 766.49,657.23 764.80,658.19 763.10,659.15 761.40,660.12 759.70,661.08 758.00,662.06 756.29,663.03 754.59,664.02 752.88,665.00 751.17,665.99 749.46,666.98 747.75,667.98 746.04,668.98 744.33,669.98 742.61,670.99 740.89,672.01 739.17,673.02 737.45,674.04 735.73,675.07 734.01,676.10 732.28,677.13 730.56,678.17 728.83,679.21 727.10,680.26 725.37,681.31 723.64,682.36 721.91,683.42 720.17,684.48 718.44,685.55 716.70,686.62 714.96,687.70 713.22,688.78 711.48,689.86 709.74,690.95 708.00,692.04 706.25,693.14 704.51,694.24 702.76,695.35 701.01,696.46 699.26,697.57 697.51,698.69 695.76,699.82 694.01,700.95 692.26,702.08">
    <lane id="-1_0" index="0" disallow="pedestrian tram rail_urban rail rail_electric rail_fast ship" speed="22.22" length="97.63" width="3.75" shape="781.01,659.86 779.50,660.70 777.82,661.63 776.14,662.57 774.46,663.51 772.78,664.45 771.10,665.40 769.41,666.35 767.73,667.31 766.04,668.26 764.35,669.23 762.66,670.19 760.96,671.16 759.27,672.14 757.57,673.12 755.88,674.10 754.18,675.09 752.48,676.08 750.77,677.07 749.07,678.07 747.37,679.07 745.66,680.08 743.95,681.09 742.24,682.10 740.53,683.12 738.82,684.14 737.11,685.17 735.39,686.20 733.68,687.24 731.96,688.27 730.24,689.32 728.52,690.37 726.80,691.42 725.08,692.47 723.35,693.53 721.63,694.60 719.90,695.67 718.17,696.74 716.45,697.82 714.72,698.90 712.98,699.98 711.25,701.07 709.52,702.17 707.78,703.27 706.05,704.37 704.31,705.48 702.57,706.59 700.83,707.70 699.09,708.82 697.47,709.87" type="driving"/>
    <lane id="-1_1" index="1" disallow="pedestrian tram rail_urban rail rail_electric rail_fast ship" speed="22.22" length="97.63" width="3.75" shape="779.19,656.58 777.68,657.42 776.00,658.36 774.31,659.29 772.63,660.24 770.94,661.18 769.26,662.13 767.57,663.09 765.88,664.04 764.18,665.00 762.49,665.97 760.79,666.94 759.10,667.91 757.40,668.89 755.70,669.87 753.99,670.86 752.29,671.84 750.59,672.84 748.88,673.83 747.17,674.83 745.46,675.84 743.75,676.85 742.04,677.86 740.33,678.88 738.61,679.90 736.90,680.93 735.18,681.95 733.46,682.99 731.74,684.03 730.02,685.07 728.29,686.11 726.57,687.16 724.84,688.22 723.12,689.28 721.39,690.34 719.66,691.41 717.93,692.48 716.19,693.55 714.46,694.63 712.73,695.72 710.99,696.81 709.25,697.90 707.51,699.00 705.77,700.10 704.03,701.20 702.29,702.32 700.55,703.43 698.80,704.55 697.06,705.67 695.44,706.72" type="driving"/>
    <lane id="-1_2" index="2" disallow="pedestrian tram rail_urban rail rail_electric rail_fast ship" speed="22.22" length="97.63" width="3.75" shape="777.38,653.30 775.86,654.14 774.17,655.08 772.48,656.02 770.80,656.96 769.11,657.91 767.41,658.87 765.72,659.82 764.03,660.78 762.33,661.75 760.63,662.71 758.93,663.68 757.23,664.66 755.53,665.64 753.82,666.62 752.11,667.61 750.41,668.60 748.70,669.60 746.99,670.60 745.27,671.60 743.56,672.61 741.85,673.62 740.13,674.64 738.41,675.66 736.69,676.68 734.97,677.71 733.25,678.74 731.52,679.78 729.80,680.82 728.07,681.86 726.35,682.91 724.62,683.96 722.89,685.02 721.15,686.08 719.42,687.15 717.69,688.22 715.95,689.29 714.21,690.37 712.48,691.45 710.74,692.54 709.00,693.63 707.25,694.73 705.51,695.83 703.77,696.93 702.02,698.04 700.27,699.15 698.53,700.27 696.78,701.40 695.03,702.52 693.40,703.57" type="driving"/>
  </edge>
  <edge id="-10" from="3" to="11.10" priority="1" type="driving" shape="450.00,552.53,20.00 449.06,550.90,20.00 448.13,549.27,20.00 447.22,547.66,20.00 446.32,546.07,20.00 445.44,544.48,20.00 444.58,542.91,20.00 443.73,541.35,20.00 442.89,539.80,20.00 442.07,538.27,20.00 441.26,536.74,20.00 440.47,535.23,20.00 439.69,533.72,20.00 438.92,532.23,20.00 438.17,530.75,20.00 437.42,529.27,20.00 436.69,527.81,20.00 435.97,526.35,20.00 435.26,524.91,20.00 434.57,523.47,20.00 433.88,522.04,20.00 433.20,520.62,20.00 432.53,519.21,20.00 431.88,517.80,20.00 431.23,516.40,20.00 430.59,515.01,20.00 429.96,513.63,20.00 429.34,512.25,20.00 428.72,510.88,20.00 428.11,509.51,20.00 427.51,508.15,20.00 426.92,506.79,20.00 426.34,505.45,20.00 425.76,504.10,20.00 425.18,502.76,20.00 424.61,501.42,20.00 424.05,500.09,20.00 423.49,498.76,20.00 422.94,497.44,20.00 422.39,496.11,20.00 421.84,494.80,20.00 421.30,493.48,20.00 420.76,492.16,20.00 420.23,490.85,20.00 419.69,489.54,20.00 419.16,488.23,20.00 418.64,486.93,20.00 418.11,485.62,20.00 417.58,484.31,20.00 417.06,483.01,20.00 416.54,481.70,20.00 416.01,480.39,20.00 415.49,479.09,20.00 414.96,477.78,20.00 414.44,476.47,20.00 413.91,475.16,20.00 413.39,473.85,20.00 412.86,472.54,20.00 412.33,471.22,20.00 411.80,469.91,20.00 411.26,468.59,20.00 410.72,467.26,20.00 410.18,465.94,20.00 409.64,464.61,20.00 409.09,463.27,20.00 408.54,461.94,20.00 407.98,460.60,20.00 407.42,459.25,20.00 406.85,457.90,20.00 406.27,456.54,20.00 405.69,455.18,20.00 405.11,453.81,20.00 404.52,452.44,20.00 403.92,451.06,20.00 403.31,449.67,20.00 402.70,448.28,20.00 402.08,446.88,20.00 401.45,445.47,20.00 400.81,444.05,20.00 400.16,442.63,20.00 399.50,441.20,20.00 398.84,439.76,20.00 398.16,438.31,20.00 397.48,436.85,20.00 396.78,435.39,20.00 396.07,433.91,20.00 395.35,432.42,20.00 394.62,430.93,20.00 393.88,429.42,20.00 393.13,427.90,20.00 392.36,426.37,20.00 391.58,424.83,20.00 390.79,423.28,20.00 389.98,421.72,20.00 389.16,420.14,20.00 388.33,418.55,20.00 387.48,416.95,20.00 386.62,415.34,20.00 385.74,413.71,20.00 384.84,412.07,20.00 383.94,410.42,20.00 383.01,408.75,20.00 382.07,407.07,20.00 381.11,405.37,20.00 380.13,403.66,20.00 379.14,401.94,20.00 378.13,400.19,20.00 377.10,398.44,20.00 376.05,396.66,20.00 374.99,394.87,20.00 373.90,393.07,20.00 372.80,391.24,20.00 371.67,389.40,20.00 370.53,387.55,20.00 369.36,385.67,20.00 368.18,383.78,20.00 366.97,381.87,20.00 365.74,379.94,20.00 364.49,377.99,20.00 363.22,376.02,20.00 361.93,374.03,20.00 360.61,372.03,20.00 359.27,370.00,20.00 357.91,367.96,20.00 356.52,365.89,20.00 355.11,363.80,20.00 353.67,361.69,20.00 352.21,359.56,20.00 350.73,357.41,20.00 349.22,355.24,20.00 347.68,353.05,20.00 346.12,350.83,20.00 344.53,348.59,20.00 342.92,346.33,20.00 341.28,344.04,20.00 339.61,341.73,20.00 337.91,339.40,20.00 336.19,337.04,20.00 334.44,334.66,20.00 332.66,332.26,20.00 330.85,329.83,20.00 329.01,327.37,20.00 327.14,324.89,20.00 325.24,322.39,20.00 323.31,319.85,20.00 321.35,317.29,20.00 319.36,314.71,20.00 317.34,312.10,20.00 315.28,309.46,20.00 313.20,306.79,20.00 311.08,304.10,20.00 308.93,301.38,20.00 306.75,298.63,20.00 304.53,295.85,20.00 302.28,293.04,20.00 300.00,290.21,20.00 297.68,287.34,20.00 295.33,284.45,20.00 292.94,281.53,20.00">