<?xml version='1.0' encoding='UTF-8'?>
<!-- generated on 2022-09-06 06:07:56 by Eclipse SUMO netconvert Version 1.13.0
<configuration xmlns:xsi="http://www.w3.org/2001/XMLSchema-instance" xsi:noNamespaceSchemaLocation="http://sumo.dlr.de/xsd/netconvertConfiguration.xsd">

    <input>
        <opendrive-files value="map\17\13463541\13463541.xodr"/>
    </input>

    <output>
        <output-file value="C:\Users\LinGe\AppData\Local\Temp\tmpjzc2imb1\13463541.net.xml"/>
    </output>

    <processing>
        <geometry.max-grade.fix value="false"/>
    </processing>

    <tls_building>
        <tls.left-green.time value="0"/>
    </tls_building>

    <junctions>
        <rectangular-lane-cut value="true"/>
    </junctions>

    <report>
        <aggregate-warnings value="5"/>
    </report>

</configuration>
-->
<net xmlns:xsi="http://www.w3.org/2001/XMLSchema-instance" version="1.9" junctionCornerDetail="5" rectangularLaneCut="true" limitTurnSpeed="5.50" xsi:noNamespaceSchemaLocation="http://sumo.dlr.de/xsd/net_file.xsd">
  <location netOffset="1.56,101.26" convBoundary="0.00,0.00,1102.73,1302.51" origBoundary="-1.56,-101.26,1101.18,1201.26" projParameter="!"/>
  <type id="bidirectional" priority="1" speed="1.39" disallow="pedestrian tram rail_urban rail rail_electric rail_fast ship" width="3.65"/>
  <type id="border" priority="0" speed="1.39" disallow="all" discard="1" width="0.10"/>
  <type id="driving" priority="1" speed="13.89" disallow="pedestrian tram rail_urban rail rail_electric rail_fast ship" width="3.65"/>
  <type id="entry" priority="1" speed="22.22" disallow="pedestrian tram rail_urban rail rail_electric rail_fast ship" width="3.65"/>
  <type id="exit" priority="1" speed="22.22" disallow="pedestrian tram rail_urban rail rail_electric rail_fast ship" width="3.65"/>
  <type id="median" priority="0" speed="1.39" disallow="all" discard="1" width="0.10"/>
  <type id="mwyEntry" priority="1" speed="22.22" allow="private emergency authority army vip passenger hov taxi bus coach delivery truck trailer motorcycle evehicle custom1 custom2" width="3.65"/>
  <type id="mwyExit" priority="1" speed="22.22" allow="private emergency authority army vip passenger hov taxi bus coach delivery truck trailer motorcycle evehicle custom1 custom2" width="3.65"/>
  <type id="none" priority="0" speed="1.39" disallow="all" discard="1" width="1.00"/>
  <type id="offRamp" priority="1" speed="22.22" allow="private emergency authority army vip passenger hov taxi bus coach delivery truck trailer motorcycle evehicle custom1 custom2" width="3.65"/>
  <type id="onRamp" priority="1" speed="22.22" allow="private emergency authority army vip passenger hov taxi bus coach delivery truck trailer motorcycle evehicle custom1 custom2" width="3.65"/>
  <type id="parking" priority="1" speed="1.39" disallow="pedestrian tram rail_urban rail rail_electric rail_fast ship" width="2.50"/>
  <type id="rail" priority="3" speed="33.33" allow="rail_urban rail rail_electric rail_fast" width="3.65"/>
  <type id="restricted" priority="0" speed="13.89" disallow="all" width="3.65"/>
  <type id="roadWorks" priority="0" speed="1.39" allow="authority" width="3.65"/>
  <type id="shoulder" priority="0" speed="1.39" disallow="all" discard="1" width="1.00"/>
  <type id="special1" priority="1" speed="22.22" allow="custom1" discard="1" width="3.65"/>
  <type id="special2" priority="1" speed="22.22" allow="custom2" discard="1" width="3.65"/>
  <type id="special3" priority="1" speed="22.22" allow="custom1 custom2" discard="1" width="3.65"/>
  <type id="stop" priority="1" speed="13.89" disallow="pedestrian tram rail_urban rail rail_electric rail_fast ship" width="3.65"/>
  <type id="tram" priority="2" speed="13.89" allow="tram" width="3.65"/>
  <edge id=":0_0" function="internal">
    <lane id=":0_0_0" index="0" disallow="pedestrian tram rail_urban rail rail_electric rail_fast ship" speed="18.06" length="69.53" width="3.75" shape="973.02,285.45 958.86,293.89 940.23,305.64 923.30,316.58 914.27,322.61"/>
  </edge>
  <edge id=":0_1" function="internal">
    <lane id=":0_1_0" index="0" disallow="pedestrian tram rail_urban rail rail_electric rail_fast ship" speed="22.22" length="69.62" width="3.75" shape="973.02,285.45 912.05,319.03"/>
    <lane id=":0_1_1" index="1" disallow="pedestrian tram rail_urban rail rail_electric rail_fast ship" speed="22.22" length="69.62" width="3.75" shape="971.22,282.16 910.23,315.75"/>
    <lane id=":0_1_2" index="2" disallow="pedestrian tram rail_urban rail rail_electric rail_fast ship" speed="22.22" length="69.62" width="3.75" shape="969.41,278.88 908.41,312.47"/>
  </edge>
  <edge id=":1_0" function="internal">
    <lane id=":1_0_0" index="0" disallow="pedestrian tram rail_urban rail rail_electric rail_fast ship" speed="16.67" length="35.02" width="3.75" shape="110.16,889.52 118.04,881.74,0.03 124.68,874.06,0.05 129.71,867.45,0.07 132.77,862.89,0.08"/>
  </edge>
  <edge id=":1_1" function="internal">
    <lane id=":1_1_0" index="0" disallow="pedestrian tram rail_urban rail rail_electric rail_fast ship" speed="22.22" length="35.30" width="3.75" shape="110.16,889.52 136.48,865.99"/>
    <lane id=":1_1_1" index="1" disallow="pedestrian tram rail_urban rail rail_electric rail_fast ship" speed="22.22" length="35.30" width="3.75" shape="112.66,892.32 138.98,868.79"/>
    <lane id=":1_1_2" index="2" disallow="pedestrian tram rail_urban rail rail_electric rail_fast ship" speed="22.22" length="35.30" width="3.75" shape="115.16,895.11 141.48,871.59"/>
  </edge>
  <edge id=":10_0" function="internal">
    <lane id=":10_0_0" index="0" disallow="pedestrian tram rail_urban rail rail_electric rail_fast ship" speed="22.22" length="8.00" width="3.75" shape="867.54,1009.28,20.00 872.05,1015.89,20.00"/>
    <lane id=":10_0_1" index="1" disallow="pedestrian tram rail_urban rail rail_electric rail_fast ship" speed="22.22" length="8.00" width="3.75" shape="864.44,1011.40,20.00 868.95,1018.01,20.00"/>
    <lane id=":10_0_2" index="2" disallow="pedestrian tram rail_urban rail rail_electric rail_fast ship" speed="22.22" length="8.00" width="3.75" shape="861.34,1013.51,20.00 865.86,1020.12,20.00"/>
  </edge>
  <edge id=":10_3" function="internal">
    <lane id=":10_3_0" index="0" disallow="pedestrian tram rail_urban rail rail_electric rail_fast ship" speed="16.67" length="8.00" width="3.75" shape="867.53,1009.29,20.00 872.05,1015.89,20.00"/>
  </edge>
  <edge id=":11_0" function="internal">
    <lane id=":11_0_0" index="0" disallow="pedestrian tram rail_urban rail rail_electric rail_fast ship" speed="19.44" length="67.06" width="3.75" shape="352.85,669.98,0.20 361.42,663.95,0.17 377.02,652.58,0.11 393.98,639.90,0.05 406.63,629.94"/>
  </edge>
  <edge id=":11_1" function="internal">
    <lane id=":11_1_0" index="0" disallow="pedestrian tram rail_urban rail rail_electric rail_fast ship" speed="22.22" length="66.67" width="3.75" shape="355.82,673.16 406.63,629.94"/>
    <lane id=":11_1_1" index="1" disallow="pedestrian tram rail_urban rail rail_electric rail_fast ship" speed="22.22" length="66.67" width="3.75" shape="358.26,676.01 409.04,632.81"/>
    <lane id=":11_1_2" index="2" disallow="pedestrian tram rail_urban rail rail_electric rail_fast ship" speed="22.22" length="66.67" width="3.75" shape="360.70,678.86 411.46,635.68"/>
  </edge>
  <edge id=":11.10_0" function="internal">
    <lane id=":11.10_0_0" index="0" disallow="pedestrian tram rail_urban rail rail_electric rail_fast ship" speed="22.22" length="0.30" width="3.75" shape="628.44,676.71,20.00 628.63,676.94,20.00"/>
    <lane id=":11.10_0_1" index="1" disallow="pedestrian tram rail_urban rail rail_electric rail_fast ship" speed="22.22" length="0.30" width="3.75" shape="625.52,679.06,20.00 625.71,679.30,20.00"/>
    <lane id=":11.10_0_2" index="2" disallow="pedestrian tram rail_urban rail rail_electric rail_fast ship" speed="22.22" length="0.30" width="3.75" shape="622.61,681.42,20.00 622.79,681.65,20.00"/>
  </edge>
  <edge id=":16.15_0" function="internal">
    <lane id=":16.15_0_0" index="0" disallow="pedestrian tram rail_urban rail rail_electric rail_fast ship" speed="22.22" length="0.30" width="3.75" shape="610.93,691.23,20.00 610.74,691.00,20.00"/>
    <lane id=":16.15_0_1" index="1" disallow="pedestrian tram rail_urban rail rail_electric rail_fast ship" speed="22.22" length="0.30" width="3.75" shape="613.85,688.88,20.00 613.66,688.64,20.00"/>
    <lane id=":16.15_0_2" index="2" disallow="pedestrian tram rail_urban rail rail_electric rail_fast ship" speed="22.22" length="0.30" width="3.75" shape="616.77,686.52,20.00 616.57,686.29,20.00"/>
  </edge>
  <edge id=":2_0" function="internal">
    <lane id=":2_0_0" index="0" disallow="pedestrian tram rail_urban rail rail_electric rail_fast ship" speed="16.67" length="50.12" width="3.75" shape="141.14,135.51,20.00 150.68,144.98,20.00 162.03,155.32,20.00 172.21,164.17,20.00 178.21,169.21,20.00"/>
  </edge>
  <edge id=":2_1" function="internal">
    <lane id=":2_1_0" index="0" disallow="pedestrian tram rail_urban rail rail_electric rail_fast ship" speed="22.22" length="50.24" width="3.75" shape="141.14,135.51,20.00 175.27,172.38,20.00"/>
    <lane id=":2_1_1" index="1" disallow="pedestrian tram rail_urban rail rail_electric rail_fast ship" speed="22.22" length="50.24" width="3.75" shape="138.39,138.06,20.00 172.52,174.92,20.00"/>
    <lane id=":2_1_2" index="2" disallow="pedestrian tram rail_urban rail rail_electric rail_fast ship" speed="22.22" length="50.24" width="3.75" shape="135.64,140.61,20.00 169.77,177.47,20.00"/>
  </edge>
  <edge id=":2.1_0" function="internal">
    <lane id=":2.1_0_0" index="0" disallow="pedestrian tram rail_urban rail rail_electric rail_fast ship" speed="22.22" length="0.30" width="3.75" shape="574.87,524.63 574.63,524.80"/>
    <lane id=":2.1_0_1" index="1" disallow="pedestrian tram rail_urban rail rail_electric rail_fast ship" speed="22.22" length="0.30" width="3.75" shape="572.66,521.59 572.42,521.77"/>
    <lane id=":2.1_0_2" index="2" disallow="pedestrian tram rail_urban rail rail_electric rail_fast ship" speed="22.22" length="0.30" width="3.75" shape="570.46,518.56 570.21,518.74"/>
  </edge>
  <edge id=":20.19_0" function="internal">
    <lane id=":20.19_0_0" index="0" disallow="pedestrian tram rail_urban rail rail_electric rail_fast ship" speed="8.33" length="0.28" width="3.75" shape="507.76,768.00,9.02 507.48,767.94,9.01"/>
  </edge>
  <edge id=":22.21_0" function="internal">
    <lane id=":22.21_0_0" index="0" disallow="pedestrian tram rail_urban rail rail_electric rail_fast ship" speed="11.11" length="0.30" width="3.75" shape="424.64,317.97,11.56 424.93,318.04,11.55"/>
  </edge>
  <edge id=":25.24_0" function="internal">
    <lane id=":25.24_0_0" index="0" disallow="pedestrian tram rail_urban rail rail_electric rail_fast ship" speed="13.89" length="0.30" width="3.75" shape="720.48,567.95,9.13 720.43,568.25,9.14"/>
  </edge>
  <edge id=":27.26_0" function="internal">
    <lane id=":27.26_0_0" index="0" disallow="pedestrian tram rail_urban rail rail_electric rail_fast ship" speed="22.22" length="0.30" width="3.75" shape="682.76,592.81,11.44 682.47,592.78,11.46"/>
  </edge>
  <edge id=":29.28_0" function="internal">
    <lane id=":29.28_0_0" index="0" disallow="pedestrian tram rail_urban rail rail_electric rail_fast ship" speed="11.11" length="0.29" width="3.75" shape="235.42,607.63,6.00 235.71,607.68,6.01"/>
  </edge>
  <edge id=":3_0" function="internal">
    <lane id=":3_0_0" index="0" disallow="pedestrian tram rail_urban rail rail_electric rail_fast ship" speed="15.28" length="64.92" width="3.75" shape="925.21,1134.76,20.00 915.91,1122.03,19.95 903.41,1105.86,19.89 891.85,1091.32,19.84 885.44,1083.46,19.81"/>
  </edge>
  <edge id=":3_1" function="internal">
    <lane id=":3_1_0" index="0" disallow="pedestrian tram rail_urban rail rail_electric rail_fast ship" speed="22.22" length="65.01" width="3.75" shape="925.21,1134.76,20.00 888.79,1080.92,20.00"/>
    <lane id=":3_1_1" index="1" disallow="pedestrian tram rail_urban rail rail_electric rail_fast ship" speed="22.22" length="65.01" width="3.75" shape="928.32,1132.66,20.00 891.89,1078.81,20.00"/>
    <lane id=":3_1_2" index="2" disallow="pedestrian tram rail_urban rail rail_electric rail_fast ship" speed="22.22" length="65.01" width="3.75" shape="931.42,1130.56,20.00 895.00,1076.71,20.00"/>
  </edge>
  <edge id=":31.30_0" function="internal">
    <lane id=":31.30_0_0" index="0" disallow="pedestrian tram rail_urban rail rail_electric rail_fast ship" speed="16.67" length="0.30" width="3.75" shape="48.51,481.74,10.54 48.40,482.01,10.53"/>
  </edge>
  <edge id=":4_0" function="internal">
    <lane id=":4_0_0" index="0" disallow="pedestrian tram rail_urban rail rail_electric rail_fast ship" speed="19.44" length="8.00" width="3.75" shape="457.63,514.68,20.00 452.28,508.74,20.00"/>
  </edge>
  <edge id=":4_1" function="internal">
    <lane id=":4_1_0" index="0" disallow="pedestrian tram rail_urban rail rail_electric rail_fast ship" speed="22.22" length="4.10" width="3.75" shape="457.63,514.68,20.00 454.89,511.63,20.00"/>
    <lane id=":4_1_1" index="1" disallow="pedestrian tram rail_urban rail rail_electric rail_fast ship" speed="22.22" length="4.10" width="3.75" shape="460.42,512.18,20.00 457.68,509.13,20.00"/>
    <lane id=":4_1_2" index="2" disallow="pedestrian tram rail_urban rail rail_electric rail_fast ship" speed="22.22" length="4.10" width="3.75" shape="463.21,509.67,20.00 460.47,506.62,20.00"/>
  </edge>
  <edge id=":5_0" function="internal">
    <lane id=":5_0_0" index="0" disallow="pedestrian tram rail_urban rail rail_electric rail_fast ship" speed="15.28" length="61.73" width="3.75" shape="138.84,900.16 131.05,905.85 117.10,916.38 101.83,928.25 90.08,937.99"/>
  </edge>
  <edge id=":5_1" function="internal">
    <lane id=":5_1_0" index="0" disallow="pedestrian tram rail_urban rail rail_electric rail_fast ship" speed="22.22" length="61.36" width="3.75" shape="135.81,897.08 90.08,937.99"/>
    <lane id=":5_1_1" index="1" disallow="pedestrian tram rail_urban rail rail_electric rail_fast ship" speed="22.22" length="61.36" width="3.75" shape="133.31,894.28 87.58,935.19"/>
    <lane id=":5_1_2" index="2" disallow="pedestrian tram rail_urban rail rail_electric rail_fast ship" speed="22.22" length="61.36" width="3.75" shape="130.81,891.49 85.08,932.40"/>
  </edge>
  <edge id=":6_0" function="internal">
    <lane id=":6_0_0" index="0" disallow="pedestrian tram rail_urban rail rail_electric rail_fast ship" speed="16.67" length="60.27" width="3.75" shape="821.32,338.78,0.00 829.98,335.09,0.00 845.44,328.08,0.00 862.48,320.01,0.00 875.86,313.17"/>
  </edge>
  <edge id=":6_1" function="internal">
    <lane id=":6_1_0" index="0" disallow="pedestrian tram rail_urban rail rail_electric rail_fast ship" speed="22.22" length="59.82" width="3.75" shape="823.72,342.54 875.86,313.17"/>
    <lane id=":6_1_1" index="1" disallow="pedestrian tram rail_urban rail rail_electric rail_fast ship" speed="22.22" length="59.82" width="3.75" shape="825.57,345.80 877.69,316.44"/>
    <lane id=":6_1_2" index="2" disallow="pedestrian tram rail_urban rail rail_electric rail_fast ship" speed="22.22" length="59.82" width="3.75" shape="827.43,349.06 879.52,319.71"/>
  </edge>
  <edge id=":7_0" function="internal">
    <lane id=":7_0_0" index="0" disallow="pedestrian tram rail_urban rail rail_electric rail_fast ship" speed="18.06" length="99.84" width="3.75" shape="805.79,912.36,20.00 859.02,996.83,20.00"/>
  </edge>
  <edge id=":7_1" function="internal">
    <lane id=":7_1_0" index="0" disallow="pedestrian tram rail_urban rail rail_electric rail_fast ship" speed="22.22" length="99.59" width="3.75" shape="802.48,914.82,20.00 859.02,996.83,20.00"/>
    <lane id=":7_1_1" index="1" disallow="pedestrian tram rail_urban rail rail_electric rail_fast ship" speed="22.22" length="99.59" width="3.75" shape="799.40,916.96,20.00 855.92,998.95,20.00"/>
    <lane id=":7_1_2" index="2" disallow="pedestrian tram rail_urban rail rail_electric rail_fast ship" speed="22.22" length="99.59" width="3.75" shape="796.32,919.10,20.00 852.83,1001.06,20.00"/>
  </edge>
  <edge id=":7.6_0" function="internal">
    <lane id=":7.6_0_0" index="0" disallow="pedestrian tram rail_urban rail rail_electric rail_fast ship" speed="22.22" length="0.30" width="3.75" shape="561.24,506.41 561.49,506.23"/>
    <lane id=":7.6_0_1" index="1" disallow="pedestrian tram rail_urban rail rail_electric rail_fast ship" speed="22.22" length="0.30" width="3.75" shape="563.45,509.44 563.69,509.26"/>
    <lane id=":7.6_0_2" index="2" disallow="pedestrian tram rail_urban rail rail_electric rail_fast ship" speed="22.22" length="0.30" width="3.75" shape="565.66,512.47 565.90,512.30"/>
  </edge>
  <edge id=":8_0" function="internal">
    <lane id=":8_0_0" index="0" disallow="pedestrian tram rail_urban rail rail_electric rail_fast ship" speed="18.06" length="30.45" width="3.75" shape="732.71,528.80,7.81 730.88,534.68,7.82 728.83,543.53,7.83 727.19,552.45,7.85 726.59,558.56,7.86"/>
  </edge>
  <edge id=":8_1" function="internal">
    <lane id=":8_1_0" index="0" disallow="pedestrian tram rail_urban rail rail_electric rail_fast ship" speed="13.89" length="30.48" width="3.75" shape="732.71,528.80,7.81 730.46,534.55,7.82 727.38,543.08,7.83 724.45,551.67,7.85 722.64,557.57,7.86"/>
  </edge>
  <edge id=":9_0" function="internal">
    <lane id=":9_0_0" index="0" disallow="pedestrian tram rail_urban rail rail_electric rail_fast ship" speed="22.22" length="4.09" width="3.75" shape="454.75,511.48,20.00 452.02,508.44,20.00"/>
    <lane id=":9_0_1" index="1" disallow="pedestrian tram rail_urban rail rail_electric rail_fast ship" speed="22.22" length="4.09" width="3.75" shape="457.54,508.98,20.00 454.81,505.93,20.00"/>
    <lane id=":9_0_2" index="2" disallow="pedestrian tram rail_urban rail rail_electric rail_fast ship" speed="22.22" length="4.09" width="3.75" shape="460.33,506.47,20.00 457.60,503.43,20.00"/>
  </edge>
  <edge id=":9_3" function="internal">
    <lane id=":9_3_0" index="0" disallow="pedestrian tram rail_urban rail rail_electric rail_fast ship" speed="22.22" length="7.92" width="3.75" shape="457.40,514.25,20.00 452.02,508.44,20.00"/>
  </edge>
  <edge id="-0" from="0.begin" to="0" priority="1" type="driving" shape="1102.73,202.87 1101.65,203.51 1100.54,204.16 1099.42,204.81 1098.28,205.48 1097.11,206.16 1095.93,206.84 1094.72,207.54 1093.50,208.24 1092.26,208.96 1090.99,209.68 1089.71,210.41 1088.41,211.15 1087.09,211.90 1085.75,212.66 1084.39,213.43 1083.02,214.21 1081.62,215.00 1080.21,215.79 1078.78,216.60 1077.33,217.41 1075.86,218.24 1074.38,219.07 1072.88,219.91 1071.36,220.76 1069.82,221.61 1068.27,222.48 1066.69,223.35 1065.11,224.24 1063.50,225.13 1061.88,226.03 1060.24,226.93 1058.59,227.85 1056.92,228.77 1055.23,229.71 1053.53,230.65 1051.81,231.59 1050.08,232.55 1048.33,233.51 1046.57,234.49 1044.79,235.46 1042.99,236.45 1041.18,237.45 1039.36,238.45 1037.52,239.46 1035.67,240.48 1033.80,241.50 1031.92,242.53 1030.02,243.57 1028.11,244.62 1026.19,245.67 1024.25,246.74 1022.30,247.80 1020.33,248.88 1018.35,249.96 1016.36,251.05 1014.36,252.15 1012.34,253.25 1010.31,254.36 1008.27,255.48 1006.22,256.60 1004.15,257.73 1002.07,258.87 999.98,260.01 997.88,261.16 995.76,262.32 993.63,263.48 991.50,264.65 989.35,265.83 987.19,267.01 985.02,268.20 982.83,269.39 980.64,270.59 978.44,271.80 976.22,273.01 974.00,274.23 971.76,275.45 969.52,276.68 967.26,277.92 965.00,279.16">
    <lane id="-0_0" index="0" disallow="pedestrian tram rail_urban rail rail_electric rail_fast ship" speed="22.22" length="153.61" width="3.75" shape="1107.48,210.96 1106.39,211.60 1105.28,212.25 1104.14,212.91 1102.99,213.59 1101.81,214.27 1100.62,214.96 1099.40,215.66 1098.17,216.37 1096.92,217.09 1095.65,217.82 1094.36,218.55 1093.05,219.30 1091.72,220.05 1090.38,220.82 1089.01,221.59 1087.63,222.37 1086.23,223.16 1084.81,223.96 1083.37,224.77 1081.92,225.59 1080.45,226.41 1078.96,227.25 1077.45,228.09 1075.93,228.94 1074.38,229.80 1072.83,230.67 1071.25,231.55 1069.66,232.43 1068.05,233.32 1066.43,234.23 1064.79,235.14 1063.13,236.05 1061.46,236.98 1059.77,237.91 1058.06,238.85 1056.34,239.80 1054.61,240.76 1052.85,241.72 1051.09,242.70 1049.31,243.68 1047.51,244.67 1045.70,245.66 1043.87,246.67 1042.03,247.68 1040.18,248.69 1038.31,249.72 1036.42,250.75 1034.53,251.79 1032.61,252.84 1030.69,253.90 1028.75,254.96 1026.80,256.03 1024.83,257.10 1022.86,258.19 1020.86,259.28 1018.86,260.37 1016.84,261.48 1014.81,262.59 1012.77,263.70 1010.71,264.83 1008.65,265.96 1006.57,267.10 1004.48,268.24 1002.37,269.39 1000.26,270.54 998.13,271.71 996.00,272.88 993.85,274.05 991.69,275.23 989.52,276.42 987.33,277.61 985.14,278.81 982.94,280.02 980.73,281.23 978.50,282.45 976.27,283.67 974.02,284.90 973.02,285.45" type="driving"/>
    <lane id="-0_1" index="1" disallow="pedestrian tram rail_urban rail rail_electric rail_fast ship" speed="22.22" length="153.61" width="3.75" shape="1105.58,207.72 1104.50,208.36 1103.39,209.01 1102.25,209.67 1101.10,210.34 1099.93,211.02 1098.74,211.71 1097.53,212.41 1096.30,213.12 1095.05,213.84 1093.79,214.56 1092.50,215.30 1091.19,216.04 1089.87,216.79 1088.53,217.56 1087.16,218.33 1085.78,219.11 1084.39,219.90 1082.97,220.70 1081.53,221.50 1080.08,222.32 1078.61,223.14 1077.13,223.98 1075.62,224.82 1074.10,225.67 1072.56,226.53 1071.00,227.39 1069.43,228.27 1067.84,229.15 1066.23,230.05 1064.61,230.95 1062.97,231.85 1061.31,232.77 1059.64,233.70 1057.95,234.63 1056.25,235.57 1054.53,236.52 1052.80,237.48 1051.05,238.44 1049.28,239.41 1047.50,240.39 1045.70,241.38 1043.89,242.38 1042.07,243.38 1040.23,244.39 1038.37,245.41 1036.50,246.43 1034.62,247.47 1032.72,248.51 1030.81,249.55 1028.89,250.61 1026.95,251.67 1025.00,252.74 1023.03,253.81 1021.05,254.90 1019.06,255.99 1017.06,257.08 1015.04,258.19 1013.01,259.30 1010.97,260.41 1008.91,261.54 1006.85,262.67 1004.77,263.80 1002.68,264.95 1000.57,266.10 998.46,267.25 996.33,268.42 994.20,269.59 992.05,270.76 989.89,271.94 987.72,273.13 985.53,274.33 983.34,275.53 981.14,276.73 978.92,277.94 976.70,279.16 974.47,280.38 972.22,281.61 971.22,282.16" type="driving"/>
    <lane id="-0_2" index="2" disallow="pedestrian tram rail_urban rail rail_electric rail_fast ship" speed="22.22" length="153.61" width="3.75" shape="1103.68,204.49 1102.60,205.13 1101.49,205.78 1100.36,206.43 1099.22,207.10 1098.05,207.78 1096.87,208.47 1095.66,209.16 1094.43,209.87 1093.19,210.58 1091.92,211.31 1090.64,212.04 1089.34,212.78 1088.02,213.53 1086.68,214.29 1085.32,215.06 1083.94,215.84 1082.54,216.63 1081.13,217.43 1079.70,218.23 1078.25,219.05 1076.78,219.87 1075.29,220.70 1073.79,221.54 1072.27,222.39 1070.73,223.25 1069.18,224.12 1067.61,224.99 1066.02,225.88 1064.41,226.77 1062.79,227.67 1061.15,228.57 1059.50,229.49 1057.83,230.41 1056.14,231.35 1054.44,232.29 1052.72,233.24 1050.99,234.19 1049.24,235.16 1047.47,236.13 1045.69,237.11 1043.90,238.09 1042.09,239.09 1040.26,240.09 1038.42,241.10 1036.57,242.12 1034.70,243.14 1032.82,244.18 1030.92,245.22 1029.01,246.26 1027.09,247.32 1025.15,248.38 1023.20,249.45 1021.23,250.52 1019.25,251.61 1017.26,252.70 1015.26,253.79 1013.24,254.90 1011.21,256.01 1009.17,257.12 1007.12,258.25 1005.05,259.38 1002.97,260.51 1000.88,261.66 998.78,262.81 996.66,263.96 994.53,265.13 992.40,266.30 990.25,267.47 988.09,268.65 985.92,269.84 983.73,271.04 981.54,272.24 979.34,273.44 977.12,274.65 974.90,275.87 972.66,277.10 970.42,278.32 969.41,278.88" type="driving"/>
  </edge>
  <edge id="-1" from="0" to="2.1" priority="1" type="driving" shape="965.00,279.16 963.41,280.03 961.82,280.90 960.23,281.77 958.63,282.65 957.03,283.53 955.42,284.41 953.80,285.30 952.19,286.19 950.57,287.08 948.94,287.97 947.31,288.87 945.68,289.77 944.04,290.67 942.39,291.57 940.75,292.48 939.10,293.38 937.44,294.29 935.78,295.21 934.12,296.12 932.46,297.04 930.79,297.96 929.11,298.89 927.44,299.81 925.75,300.74 924.07,301.67 922.38,302.60 920.69,303.54 919.00,304.47 917.30,305.41 915.60,306.35 913.89,307.30 912.18,308.24 910.47,309.19 908.76,310.14 907.04,311.09 905.32,312.05 903.60,313.00 901.87,313.96 900.14,314.92 898.41,315.88 896.67,316.85 894.93,317.81 893.19,318.78 891.45,319.75 889.70,320.73 887.96,321.70 886.21,322.68 884.45,323.66 882.70,324.64 880.94,325.62 879.18,326.60 877.41,327.59 875.65,328.58 873.88,329.57 872.11,330.56 870.34,331.55 868.57,332.54 866.79,333.54 865.01,334.54 863.23,335.54 861.45,336.54 859.67,337.54 857.88,338.55 856.10,339.55 854.31,340.56 852.52,341.57 850.73,342.58 848.93,343.60 847.14,344.61 845.34,345.63 843.54,346.64 841.74,347.66 839.94,348.68 838.14,349.70 836.34,350.73 834.54,351.75 832.73,352.78 830.92,353.80 829.12,354.83 827.31,355.86 825.50,356.89 823.69,357.93 821.88,358.96 820.07,359.99 818.26,361.03 816.44,362.07 814.63,363.11 812.81,364.15 811.00,365.19 809.18,366.23 807.37,367.27 805.55,368.32 803.74,369.36 801.92,370.41 800.10,371.46 798.28,372.51 796.47,373.56 794.65,374.61 792.83,375.66 791.01,376.71 789.19,377.76 787.38,378.82 785.56,379.87 783.74,380.93 781.92,381.99 780.11,383.05 778.29,384.10 776.47,385.16 774.66,386.23 772.84,387.29 771.03,388.35 769.21,389.41 767.40,390.48 765.59,391.54 763.77,392.60 761.96,393.67 760.15,394.74 758.34,395.80 756.53,396.87 754.72,397.94 752.91,399.01 751.11,400.08 749.30,401.15 747.50,402.22 745.69,403.29 743.89,404.36 742.09,405.43 740.29,406.51 738.49,407.58 736.69,408.65 734.90,409.73 733.11,410.80 731.31,411.88 729.52,412.95 727.73,414.03 725.94,415.10 724.16,416.18 722.37,417.25 720.59,418.33 718.81,419.41 717.03,420.48 715.26,421.56 713.48,422.64 711.71,423.72 709.94,424.79 708.17,425.87 706.40,426.95 704.64,428.03 702.88,429.11 701.12,430.18 699.36,431.26 697.61,432.34 695.85,433.42 694.10,434.50 692.36,435.58 690.61,436.65 688.87,437.73 687.13,438.81 685.39,439.89 683.66,440.97 681.93,442.05 680.20,443.12 678.48,444.20 676.75,445.28 675.04,446.36 673.32,447.43 671.61,448.51 669.90,449.59 668.19,450.66 666.49,451.74 664.79,452.81 663.09,453.89 661.40,454.96 659.71,456.04 658.02,457.11 656.34,458.19 654.66,459.26 652.99,460.33 651.31,461.41 649.65,462.48 647.98,463.55 646.32,464.62 644.67,465.69 643.01,466.76 641.36,467.83 639.72,468.90 638.08,469.97 636.44,471.03 634.81,472.10 633.18,473.17 631.56,474.23 629.94,475.30 628.32,476.36 626.71,477.43 625.11,478.49 623.51,479.55 621.91,480.61 620.32,481.67 618.73,482.73 617.15,483.79 615.57,484.85 613.99,485.91 612.42,486.96 610.86,488.02 609.30,489.07 607.75,490.13 606.20,491.18 604.65,492.23 603.11,493.28 601.58,494.33 600.05,495.38 598.53,496.43 597.01,497.48 595.50,498.52 593.99,499.57 592.49,500.61 590.99,501.65 589.50,502.69 588.01,503.73 586.53,504.77 585.06,505.81 583.59,506.84 582.13,507.88 580.67,508.91 579.22,509.94 577.78,510.98 576.34,512.01 574.90,513.03 573.48,514.06 572.06,515.09 570.64,516.11 569.23,517.13">
    <lane id="-1_0" index="0" disallow="pedestrian tram rail_urban rail rail_electric rail_fast ship" speed="22.22" length="395.60" width="3.75" shape="912.05,319.03 911.59,319.29 909.87,320.24 908.15,321.20 906.42,322.16 904.69,323.12 902.96,324.08 901.23,325.04 899.49,326.01 897.75,326.98 896.01,327.94 894.27,328.92 892.52,329.89 890.77,330.87 889.02,331.84 887.27,332.82 885.51,333.80 883.75,334.79 881.99,335.77 880.23,336.76 878.46,337.74 876.69,338.74 874.92,339.73 873.15,340.72 871.38,341.72 869.60,342.71 867.83,343.71 866.05,344.71 864.27,345.71 862.48,346.72 860.70,347.72 858.91,348.73 857.12,349.74 855.33,350.75 853.54,351.76 851.75,352.77 849.96,353.79 848.16,354.80 846.36,355.82 844.57,356.84 842.77,357.86 840.97,358.88 839.17,359.90 837.36,360.93 835.56,361.95 833.76,362.98 831.95,364.01 830.14,365.04 828.34,366.07 826.53,367.10 824.72,368.13 822.91,369.17 821.10,370.20 819.29,371.24 817.48,372.28 815.67,373.32 813.85,374.36 812.04,375.40 810.23,376.44 808.41,377.49 806.60,378.53 804.78,379.58 802.97,380.62 801.16,381.67 799.34,382.72 797.53,383.77 795.71,384.82 793.90,385.87 792.08,386.93 790.27,387.98 788.45,389.03 786.64,390.09 784.83,391.15 783.01,392.20 781.20,393.26 779.39,394.32 777.58,395.38 775.76,396.44 773.95,397.50 772.14,398.56 770.33,399.62 768.52,400.69 766.72,401.75 764.91,402.81 763.10,403.88 761.30,404.94 759.49,406.01 757.69,407.08 755.88,408.14 754.08,409.21 752.28,410.28 750.48,411.35 748.68,412.42 746.89,413.49 745.09,414.56 743.30,415.63 741.50,416.70 739.71,417.77 737.92,418.84 736.14,419.92 734.35,420.99 732.56,422.06 730.78,423.13 729.00,424.21 727.22,425.28 725.44,426.35 723.66,427.43 721.89,428.50 720.12,429.58 718.35,430.65 716.58,431.73 714.81,432.80 713.05,433.88 711.29,434.95 709.53,436.03 707.77,437.10 706.02,438.18 704.27,439.25 702.52,440.33 700.77,441.40 699.03,442.48 697.28,443.55 695.54,444.63 693.81,445.70 692.07,446.78 690.34,447.85 688.61,448.93 686.89,450.00 685.17,451.08 683.45,452.15 681.73,453.22 680.02,454.30 678.31,455.37 676.60,456.44 674.90,457.52 673.20,458.59 671.50,459.66 669.80,460.73 668.11,461.81 666.43,462.88 664.74,463.95 663.06,465.02 661.39,466.09 659.71,467.16 658.05,468.23 656.38,469.29 654.72,470.36 653.06,471.43 651.41,472.50 649.76,473.56 648.11,474.63 646.47,475.69 644.83,476.76 643.20,477.82 641.57,478.88 639.94,479.95 638.32,481.01 636.71,482.07 635.09,483.13 633.49,484.19 631.88,485.25 630.29,486.31 628.69,487.36 627.10,488.42 625.52,489.47 623.94,490.53 622.36,491.58 620.79,492.64 619.22,493.69 617.66,494.74 616.11,495.79 614.56,496.84 613.01,497.89 611.47,498.93 609.93,499.98 608.40,501.02 606.88,502.07 605.36,503.11 603.84,504.15 602.33,505.19 600.83,506.23 599.33,507.27 597.84,508.30 596.35,509.34 594.87,510.37 593.40,511.41 591.92,512.44 590.46,513.47 589.00,514.50 587.55,515.53 586.10,516.55 584.66,517.58 583.23,518.60 581.80,519.63 580.38,520.65 578.96,521.67 577.55,522.68 576.14,523.70 574.87,524.63" type="driving"/>