<?xml version='1.0' encoding='UTF-8'?>
<!-- generated on 2022-11-13 00:27:15 by Eclipse SUMO netconvert Version 1.13.0
<configuration xmlns:xsi="http://www.w3.org/2001/XMLSchema-instance" xsi:noNamespaceSchemaLocation="http://sumo.dlr.de/xsd/netconvertConfiguration.xsd">

    <input>
        <opendrive-files value="map_v4\21\22632246\22632246.xodr"/>
    </input>

    <output>
        <output-file value="C:\Users\LinGe\AppData\Local\Temp\tmpgiekeyi0\22632246.net.xml"/>
    </output>

    <processing>
        <geometry.max-grade.fix value="false"/>
    </processing>

    <tls_building>
        <tls.left-green.time value="0"/>
    </tls_building>

    <junctions>
        <rectangular-lane-cut value="true"/>
    </junctions>

    <report>
        <aggregate-warnings value="5"/>
    </report>

</configuration>
-->
<net xmlns:xsi="http://www.w3.org/2001/XMLSchema-instance" version="1.9" junctionCornerDetail="5" rectangularLaneCut="true" limitTurnSpeed="5.50" xsi:noNamespaceSchemaLocation="http://sumo.dlr.de/xsd/net_file.xsd">
  <location netOffset="1.56,101.26" convBoundary="0.00,0.00,1102.73,1302.51" origBoundary="-1.56,-101.26,1101.18,1201.26" projParameter="!"/>
  <type id="bidirectional" priority="1" speed="1.39" disallow="pedestrian tram rail_urban rail rail_electric rail_fast ship" width="3.65"/>
  <type id="border" priority="0" speed="1.39" disallow="all" discard="1" width="0.10"/>
  <type id="driving" priority="1" speed="13.89" disallow="pedestrian tram rail_urban rail rail_electric rail_fast ship" width="3.65"/>
  <type id="entry" priority="1" speed="22.22" disallow="pedestrian tram rail_urban rail rail_electric rail_fast ship" width="3.65"/>
  <type id="exit" priority="1" speed="22.22" disallow="pedestrian tram rail_urban rail rail_electric rail_fast ship" width="3.65"/>
  <type id="median" priority="0" speed="1.39" disallow="all" discard="1" width="0.10"/>
  <type id="mwyEntry" priority="1" speed="22.22" allow="private emergency authority army vip passenger hov taxi bus coach delivery truck trailer motorcycle evehicle custom1 custom2" width="3.65"/>
  <type id="mwyExit" priority="1" speed="22.22" allow="private emergency authority army vip passenger hov taxi bus coach delivery truck trailer motorcycle evehicle custom1 custom2" width="3.65"/>
  <type id="none" priority="0" speed="1.39" disallow="all" discard="1" width="1.00"/>
  <type id="offRamp" priority="1" speed="22.22" allow="private emergency authority army vip passenger hov taxi bus coach delivery truck trailer motorcycle evehicle custom1 custom2" width="3.65"/>
  <type id="onRamp" priority="1" speed="22.22" allow="private emergency authority army vip passenger hov taxi bus coach delivery truck trailer motorcycle evehicle custom1 custom2" width="3.65"/>
  <type id="parking" priority="1" speed="1.39" disallow="pedestrian tram rail_urban rail rail_electric rail_fast ship" width="2.50"/>
  <type id="rail" priority="3" speed="33.33" allow="rail_urban rail rail_electric rail_fast" width="3.65"/>
  <type id="restricted" priority="0" speed="13.89" disallow="all" width="3.65"/>
  <type id="roadWorks" priority="0" speed="1.39" allow="authority" width="3.65"/>
  <type id="shoulder" priority="0" speed="1.39" disallow="all" discard="1" width="1.00"/>
  <type id="special1" priority="1" speed="22.22" allow="custom1" discard="1" width="3.65"/>
  <type id="special2" priority="1" speed="22.22" allow="custom2" discard="1" width="3.65"/>
  <type id="special3" priority="1" speed="22.22" allow="custom1 custom2" discard="1" width="3.65"/>
  <type id="stop" priority="1" speed="13.89" disallow="pedestrian tram rail_urban rail rail_electric rail_fast ship" width="3.65"/>
  <type id="tram" priority="2" speed="13.89" allow="tram" width="3.65"/>
  <edge id=":0_0" function="internal">
    <lane id=":0_0_0" index="0" disallow="pedestrian tram rail_urban rail rail_electric rail_fast ship" speed="16.67" length="37.95" width="3.75" shape="952.35,298.09 942.56,304.20,0.05 933.53,310.75,0.09 926.27,316.58,0.13 921.78,320.47,0.15"/>
  </edge>
  <edge id=":0_1" function="internal">
    <lane id=":0_1_0" index="0" disallow="pedestrian tram rail_urban rail rail_electric rail_fast ship" speed="22.22" length="38.12" width="3.75" shape="952.35,298.09 919.11,316.72"/>
    <lane id=":0_1_1" index="1" disallow="pedestrian tram rail_urban rail rail_electric rail_fast ship" speed="22.22" length="38.12" width="3.75" shape="950.52,294.81 917.27,313.46"/>
    <lane id=":0_1_2" index="2" disallow="pedestrian tram rail_urban rail rail_electric rail_fast ship" speed="22.22" length="38.12" width="3.75" shape="948.69,291.54 915.43,310.19"/>
  </edge>
  <edge id=":1_0" function="internal">
    <lane id=":1_0_0" index="0" disallow="pedestrian tram rail_urban rail rail_electric rail_fast ship" speed="15.97" length="28.55" width="3.75" shape="486.44,603.05 479.21,609.54 473.89,615.48 470.28,620.61 468.22,624.71"/>
  </edge>
  <edge id=":1_1" function="internal">
    <lane id=":1_1_0" index="0" disallow="pedestrian tram rail_urban rail rail_electric rail_fast ship" speed="22.22" length="29.13" width="3.75" shape="486.44,603.05 463.88,621.45"/>
    <lane id=":1_1_1" index="1" disallow="pedestrian tram rail_urban rail rail_electric rail_fast ship" speed="22.22" length="29.13" width="3.75" shape="484.07,600.14 461.50,618.55"/>
    <lane id=":1_1_2" index="2" disallow="pedestrian tram rail_urban rail rail_electric rail_fast ship" speed="22.22" length="29.13" width="3.75" shape="481.71,597.23 459.12,615.65"/>
  </edge>
  <edge id=":10_0" function="internal">
    <lane id=":10_0_0" index="0" disallow="pedestrian tram rail_urban rail rail_electric rail_fast ship" speed="20.83" length="115.00" width="3.75" shape="863.59,317.39 965.76,264.60"/>
  </edge>
  <edge id=":10_1" function="internal">
    <lane id=":10_1_0" index="0" disallow="pedestrian tram rail_urban rail rail_electric rail_fast ship" speed="22.22" length="114.77" width="3.75" shape="865.69,320.89 965.76,264.60"/>
    <lane id=":10_1_1" index="1" disallow="pedestrian tram rail_urban rail rail_electric rail_fast ship" speed="22.22" length="114.77" width="3.75" shape="867.55,324.14 967.58,267.88"/>
    <lane id=":10_1_2" index="2" disallow="pedestrian tram rail_urban rail rail_electric rail_fast ship" speed="22.22" length="114.77" width="3.75" shape="869.41,327.40 969.40,271.16"/>
  </edge>
  <edge id=":11_0" function="internal">
    <lane id=":11_0_0" index="0" disallow="pedestrian tram rail_urban rail rail_electric rail_fast ship" speed="16.67" length="42.96" width="3.75" shape="952.05,1121.16,19.87 954.76,1127.31,19.89 959.47,1137.28,19.93 965.37,1148.74,19.96 971.63,1159.35,20.00"/>
  </edge>
  <edge id=":11_1" function="internal">
    <lane id=":11_1_0" index="0" disallow="pedestrian tram rail_urban rail rail_electric rail_fast ship" speed="22.22" length="42.42" width="3.75" shape="948.37,1123.88,20.00 971.63,1159.35,20.00"/>
    <lane id=":11_1_1" index="1" disallow="pedestrian tram rail_urban rail rail_electric rail_fast ship" speed="22.22" length="42.42" width="3.75" shape="945.23,1125.94,20.00 968.50,1161.41,20.00"/>
    <lane id=":11_1_2" index="2" disallow="pedestrian tram rail_urban rail rail_electric rail_fast ship" speed="22.22" length="42.42" width="3.75" shape="942.10,1128.00,20.00 965.36,1163.46,20.00"/>
  </edge>
  <edge id=":12_0" function="internal">
    <lane id=":12_0_0" index="0" disallow="pedestrian tram rail_urban rail rail_electric rail_fast ship" speed="15.97" length="30.82" width="3.75" shape="587.64,660.35,20.00 586.52,655.67,20.00 583.84,649.35,20.00 579.41,641.84,20.00 573.07,633.57,20.00"/>
  </edge>
  <edge id=":12_1" function="internal">
    <lane id=":12_1_0" index="0" disallow="pedestrian tram rail_urban rail rail_electric rail_fast ship" speed="22.22" length="29.47" width="3.75" shape="592.20,655.94,20.00 573.07,633.57,20.00"/>
    <lane id=":12_1_1" index="1" disallow="pedestrian tram rail_urban rail rail_electric rail_fast ship" speed="22.22" length="29.47" width="3.75" shape="595.06,653.51,20.00 575.90,631.12,20.00"/>
    <lane id=":12_1_2" index="2" disallow="pedestrian tram rail_urban rail rail_electric rail_fast ship" speed="22.22" length="29.47" width="3.75" shape="597.93,651.09,20.00 578.74,628.66,20.00"/>
  </edge>
  <edge id=":13_0" function="internal">
    <lane id=":13_0_0" index="0" disallow="pedestrian tram rail_urban rail rail_electric rail_fast ship" speed="15.97" length="31.31" width="3.75" shape="427.72,613.66,0.00 432.47,612.51,0.00 438.95,609.79,0.00 446.67,605.39,0.00 455.15,599.20"/>
  </edge>
  <edge id=":13_1" function="internal">
    <lane id=":13_1_0" index="0" disallow="pedestrian tram rail_urban rail rail_electric rail_fast ship" speed="22.22" length="29.96" width="3.75" shape="431.99,618.23 455.15,599.20"/>
    <lane id=":13_1_1" index="1" disallow="pedestrian tram rail_urban rail rail_electric rail_fast ship" speed="22.22" length="29.96" width="3.75" shape="434.38,621.12 457.53,602.10"/>
    <lane id=":13_1_2" index="2" disallow="pedestrian tram rail_urban rail rail_electric rail_fast ship" speed="22.22" length="29.96" width="3.75" shape="436.76,624.02 459.90,605.01"/>
  </edge>
  <edge id=":13.12_0" function="internal">
    <lane id=":13.12_0_0" index="0" disallow="pedestrian tram rail_urban rail rail_electric rail_fast ship" speed="22.22" length="0.30" width="3.75" shape="632.26,668.63,20.00 632.45,668.87,20.00"/>
    <lane id=":13.12_0_1" index="1" disallow="pedestrian tram rail_urban rail rail_electric rail_fast ship" speed="22.22" length="0.30" width="3.75" shape="629.34,670.99,20.00 629.53,671.22,20.00"/>
    <lane id=":13.12_0_2" index="2" disallow="pedestrian tram rail_urban rail rail_electric rail_fast ship" speed="22.22" length="0.30" width="3.75" shape="626.43,673.34,20.00 626.61,673.57,20.00"/>
  </edge>
  <edge id=":14_0" function="internal">
    <lane id=":14_0_0" index="0" disallow="pedestrian tram rail_urban rail rail_electric rail_fast ship" speed="18.06" length="27.55" width="3.75" shape="661.67,479.14 657.16,479.61 651.27,481.12 644.22,484.04 636.22,488.79"/>
  </edge>
  <edge id=":14_1" function="internal">
    <lane id=":14_1_0" index="0" disallow="pedestrian tram rail_urban rail rail_electric rail_fast ship" speed="22.22" length="26.18" width="3.75" shape="657.85,474.13 636.22,488.79"/>
    <lane id=":14_1_1" index="1" disallow="pedestrian tram rail_urban rail rail_electric rail_fast ship" speed="22.22" length="26.18" width="3.75" shape="655.77,471.02 634.09,485.70"/>
    <lane id=":14_1_2" index="2" disallow="pedestrian tram rail_urban rail rail_electric rail_fast ship" speed="22.22" length="26.18" width="3.75" shape="653.68,467.90 631.97,482.62"/>
  </edge>
  <edge id=":15_0" function="internal">
    <lane id=":15_0_0" index="0" disallow="pedestrian tram rail_urban rail rail_electric rail_fast ship" speed="11.11" length="18.38" width="3.75" shape="853.73,756.44,12.01 857.57,774.42,12.04"/>
  </edge>
  <edge id=":15_1" function="internal">
    <lane id=":15_1_0" index="0" disallow="pedestrian tram rail_urban rail rail_electric rail_fast ship" speed="15.28" length="18.03" width="3.75" shape="849.81,758.26,11.99 852.17,761.77,12.01 854.44,765.99,12.02 856.34,770.39,12.03 857.57,774.42,12.04"/>
  </edge>
  <edge id=":18.17_0" function="internal">
    <lane id=":18.17_0_0" index="0" disallow="pedestrian tram rail_urban rail rail_electric rail_fast ship" speed="22.22" length="0.30" width="3.75" shape="614.75,683.16,20.00 614.56,682.93,20.00"/>
    <lane id=":18.17_0_1" index="1" disallow="pedestrian tram rail_urban rail rail_electric rail_fast ship" speed="22.22" length="0.30" width="3.75" shape="617.67,680.80,20.00 617.48,680.57,20.00"/>
    <lane id=":18.17_0_2" index="2" disallow="pedestrian tram rail_urban rail rail_electric rail_fast ship" speed="22.22" length="0.30" width="3.75" shape="620.59,678.45,20.00 620.40,678.21,20.00"/>
  </edge>
  <edge id=":2_0" function="internal">
    <lane id=":2_0_0" index="0" disallow="pedestrian tram rail_urban rail rail_electric rail_fast ship" speed="15.97" length="72.91" width="3.75" shape="170.58,840.20 183.08,828.66 199.76,812.55 214.93,797.58 222.92,789.46"/>
  </edge>
  <edge id=":2_1" function="internal">
    <lane id=":2_1_0" index="0" disallow="pedestrian tram rail_urban rail rail_electric rail_fast ship" speed="22.22" length="73.07" width="3.75" shape="170.58,840.20 225.92,792.48"/>
    <lane id=":2_1_1" index="1" disallow="pedestrian tram rail_urban rail rail_electric rail_fast ship" speed="22.22" length="73.07" width="3.75" shape="173.03,843.04 228.37,795.32"/>
    <lane id=":2_1_2" index="2" disallow="pedestrian tram rail_urban rail rail_electric rail_fast ship" speed="22.22" length="73.07" width="3.75" shape="175.49,845.88 230.81,798.16"/>
  </edge>
  <edge id=":23.22_0" function="internal">
    <lane id=":23.22_0_0" index="0" disallow="pedestrian tram rail_urban rail rail_electric rail_fast ship" speed="9.72" length="0.30" width="3.75" shape="606.40,870.72,11.91 606.11,870.67,11.90"/>
  </edge>
  <edge id=":26.25_0" function="internal">
    <lane id=":26.25_0_0" index="0" disallow="pedestrian tram rail_urban rail rail_electric rail_fast ship" speed="9.72" length="0.29" width="3.75" shape="305.92,517.44,9.98 305.91,517.15,9.99"/>
  </edge>
  <edge id=":28.27_0" function="internal">
    <lane id=":28.27_0_0" index="0" disallow="pedestrian tram rail_urban rail rail_electric rail_fast ship" speed="19.44" length="0.30" width="3.75" shape="533.22,382.73,10.58 533.51,382.76,10.57"/>
  </edge>
  <edge id=":3_0" function="internal">
    <lane id=":3_0_0" index="0" disallow="pedestrian tram rail_urban rail rail_electric rail_fast ship" speed="20.83" length="76.21" width="3.75" shape="187.08,181.06,20.00 199.52,193.41,20.00 217.14,210.17,20.00 233.54,225.50,20.00 242.33,233.54,20.00"/>
  </edge>
  <edge id=":3_1" function="internal">
    <lane id=":3_1_0" index="0" disallow="pedestrian tram rail_urban rail rail_electric rail_fast ship" speed="22.22" length="76.32" width="3.75" shape="187.08,181.06,20.00 239.47,236.57,20.00"/>
    <lane id=":3_1_1" index="1" disallow="pedestrian tram rail_urban rail rail_electric rail_fast ship" speed="22.22" length="76.32" width="3.75" shape="184.35,183.64,20.00 236.74,239.15,20.00"/>
    <lane id=":3_1_2" index="2" disallow="pedestrian tram rail_urban rail rail_electric rail_fast ship" speed="22.22" length="76.32" width="3.75" shape="181.63,186.22,20.00 234.01,241.72,20.00"/>
  </edge>
  <edge id=":3.2_0" function="internal">
    <lane id=":3.2_0_0" index="0" disallow="pedestrian tram rail_urban rail rail_electric rail_fast ship" speed="22.22" length="0.30" width="3.75" shape="602.96,512.29 602.72,512.46"/>
    <lane id=":3.2_0_1" index="1" disallow="pedestrian tram rail_urban rail rail_electric rail_fast ship" speed="22.22" length="0.30" width="3.75" shape="600.75,509.26 600.51,509.43"/>
    <lane id=":3.2_0_2" index="2" disallow="pedestrian tram rail_urban rail rail_electric rail_fast ship" speed="22.22" length="0.30" width="3.75" shape="598.55,506.22 598.30,506.40"/>
  </edge>
  <edge id=":30.29_0" function="internal">
    <lane id=":30.29_0_0" index="0" disallow="pedestrian tram rail_urban rail rail_electric rail_fast ship" speed="11.11" length="0.29" width="3.75" shape="812.86,524.28,5.88 812.87,524.57,5.89"/>
  </edge>
  <edge id=":33.32_0" function="internal">
    <lane id=":33.32_0_0" index="0" disallow="pedestrian tram rail_urban rail rail_electric rail_fast ship" speed="9.72" length="0.28" width="3.75" shape="523.69,686.36,10.32 523.96,686.44,10.36"/>
  </edge>
  <edge id=":35.34_0" function="internal">
    <lane id=":35.34_0_0" index="0" disallow="pedestrian tram rail_urban rail rail_electric rail_fast ship" speed="9.72" length="0.28" width="3.75" shape="396.10,552.87,9.91 396.06,553.14,9.86"/>
  </edge>
  <edge id=":37.36_0" function="internal">
    <lane id=":37.36_0_0" index="0" disallow="pedestrian tram rail_urban rail rail_electric rail_fast ship" speed="13.89" length="0.28" width="3.75" shape="742.09,585.01,9.93 742.09,584.73,9.90"/>
  </edge>
  <edge id=":39.38_0" function="internal">
    <lane id=":39.38_0_0" index="0" disallow="pedestrian tram rail_urban rail rail_electric rail_fast ship" speed="19.44" length="0.30" width="3.75" shape="590.70,647.14,9.02 590.99,647.20,9.03"/>
  </edge>
  <edge id=":4_0" function="internal">
    <lane id=":4_0_0" index="0" disallow="pedestrian tram rail_urban rail rail_electric rail_fast ship" speed="18.06" length="23.02" width="3.75" shape="640.07,678.40,20.00 645.16,684.13,19.94 649.85,688.19,19.88 654.12,690.84,19.84 657.95,692.36,19.81"/>
  </edge>
  <edge id=":4_1" function="internal">
    <lane id=":4_1_0" index="0" disallow="pedestrian tram rail_urban rail rail_electric rail_fast ship" speed="22.22" length="23.76" width="3.75" shape="640.07,678.40,20.00 654.71,697.18,20.00"/>
    <lane id=":4_1_1" index="1" disallow="pedestrian tram rail_urban rail rail_electric rail_fast ship" speed="22.22" length="23.76" width="3.75" shape="637.13,680.72,20.00 651.74,699.47,20.00"/>
    <lane id=":4_1_2" index="2" disallow="pedestrian tram rail_urban rail rail_electric rail_fast ship" speed="22.22" length="23.76" width="3.75" shape="634.19,683.05,20.00 648.76,701.75,20.00"/>
  </edge>
  <edge id=":5_0" function="internal">
    <lane id=":5_0_0" index="0" disallow="pedestrian tram rail_urban rail rail_electric rail_fast ship" speed="15.97" length="42.06" width="3.75" shape="903.63,1097.22,20.00 896.46,1087.37,19.96 888.48,1077.65,19.93 881.39,1069.61,19.90 876.91,1064.79,19.88"/>
  </edge>
  <edge id=":5_1" function="internal">
    <lane id=":5_1_0" index="0" disallow="pedestrian tram rail_urban rail rail_electric rail_fast ship" speed="22.22" length="42.19" width="3.75" shape="903.63,1097.22,20.00 880.39,1062.02,20.00"/>
    <lane id=":5_1_1" index="1" disallow="pedestrian tram rail_urban rail rail_electric rail_fast ship" speed="22.22" length="42.19" width="3.75" shape="906.76,1095.15,20.00 883.51,1059.95,20.00"/>
    <lane id=":5_1_2" index="2" disallow="pedestrian tram rail_urban rail rail_electric rail_fast ship" speed="22.22" length="42.19" width="3.75" shape="909.89,1093.09,20.00 886.64,1057.88,20.00"/>
  </edge>
  <edge id=":6_0" function="internal">
    <lane id=":6_0_0" index="0" disallow="pedestrian tram rail_urban rail rail_electric rail_fast ship" speed="15.97" length="29.51" width="3.75" shape="468.46,516.28,20.00 461.34,509.16,20.00 454.91,503.94,20.00 449.44,500.45,20.00 445.19,498.53,20.00"/>
  </edge>
  <edge id=":6_1" function="internal">
    <lane id=":6_1_0" index="0" disallow="pedestrian tram rail_urban rail rail_electric rail_fast ship" speed="22.22" length="30.10" width="3.75" shape="468.46,516.28,20.00 448.18,494.05,20.00"/>
    <lane id=":6_1_1" index="1" disallow="pedestrian tram rail_urban rail rail_electric rail_fast ship" speed="22.22" length="30.10" width="3.75" shape="471.24,513.75,20.00 450.94,491.52,20.00"/>
    <lane id=":6_1_2" index="2" disallow="pedestrian tram rail_urban rail rail_electric rail_fast ship" speed="22.22" length="30.10" width="3.75" shape="474.01,511.23,20.00 453.71,488.99,20.00"/>
  </edge>
  <edge id=":7_0" function="internal">
    <lane id=":7_0_0" index="0" disallow="pedestrian tram rail_urban rail rail_electric rail_fast ship" speed="15.97" length="56.89" width="3.75" shape="121.90,918.34,0.16 114.55,923.34,0.14 101.68,932.53,0.09 87.49,943.07,0.04 76.16,952.13"/>
  </edge>
  <edge id=":7_1" function="internal">
    <lane id=":7_1_0" index="0" disallow="pedestrian tram rail_urban rail rail_electric rail_fast ship" speed="22.22" length="56.45" width="3.75" shape="118.80,915.14 76.16,952.13"/>
    <lane id=":7_1_1" index="1" disallow="pedestrian tram rail_urban rail rail_electric rail_fast ship" speed="22.22" length="56.45" width="3.75" shape="116.35,912.31 73.70,949.30"/>
    <lane id=":7_1_2" index="2" disallow="pedestrian tram rail_urban rail rail_electric rail_fast ship" speed="22.22" length="56.45" width="3.75" shape="113.89,909.47 71.24,946.46"/>
  </edge>
  <edge id=":8_0" function="internal">
    <lane id=":8_0_0" index="0" disallow="pedestrian tram rail_urban rail rail_electric rail_fast ship" speed="15.97" length="37.71" width="3.75" shape="180.28,213.77,19.84 177.15,208.76,19.87 172.03,201.08,19.91 165.46,192.15,19.95 158.00,183.41,20.00"/>
  </edge>
  <edge id=":8_1" function="internal">
    <lane id=":8_1_0" index="0" disallow="pedestrian tram rail_urban rail rail_electric rail_fast ship" speed="22.22" length="37.10" width="3.75" shape="183.49,210.37,20.00 158.00,183.41,20.00"/>
    <lane id=":8_1_1" index="1" disallow="pedestrian tram rail_urban rail rail_electric rail_fast ship" speed="22.22" length="37.10" width="3.75" shape="186.21,207.80,20.00 160.73,180.83,20.00"/>
    <lane id=":8_1_2" index="2" disallow="pedestrian tram rail_urban rail rail_electric rail_fast ship" speed="22.22" length="37.10" width="3.75" shape="188.94,205.22,20.00 163.45,178.26,20.00"/>
  </edge>
  <edge id=":9_0" function="internal">
    <lane id=":9_0_0" index="0" disallow="pedestrian tram rail_urban rail rail_electric rail_fast ship" speed="9.72" length="14.42" width="3.75" shape="296.35,651.84,5.97 299.23,637.71,6.02"/>
  </edge>
  <edge id=":9_1" function="internal">
    <lane id=":9_1_0" index="0" disallow="pedestrian tram rail_urban rail rail_electric rail_fast ship" speed="14.19" length="16.28" width="3.75" shape="296.35,651.84,5.97 297.60,648.09,5.99 299.58,644.39,6.00 302.11,641.04,6.02 305.01,638.38,6.03"/>
  </edge>
  <edge id=":9.8_0" function="internal">
    <lane id=":9.8_0_0" index="0" disallow="pedestrian tram rail_urban rail rail_electric rail_fast ship" speed="22.22" length="0.30" width="3.75" shape="589.33,494.07 589.58,493.89"/>
    <lane id=":9.8_0_1" index="1" disallow="pedestrian tram rail_urban rail rail_electric rail_fast ship" speed="22.22" length="0.30" width="3.75" shape="591.54,497.10 591.78,496.92"/>
    <lane id=":9.8_0_2" index="2" disallow="pedestrian tram rail_urban rail rail_electric rail_fast ship" speed="22.22" length="0.30" width="3.75" shape="593.75,500.13 593.99,499.96"/>
  </edge>
  <edge id="-0" from="0.begin" to="0" priority="1" type="driving" shape="1102.73,202.87 1101.64,203.52 1100.54,204.18 1099.41,204.85 1098.27,205.52 1097.11,206.21 1095.93,206.90 1094.74,207.60 1093.52,208.31 1092.29,209.02 1091.05,209.75 1089.78,210.48 1088.50,211.22 1087.21,211.97 1085.89,212.73 1084.56,213.49 1083.22,214.27 1081.85,215.05 1080.47,215.84 1079.08,216.64 1077.67,217.44 1076.24,218.25 1074.80,219.07 1073.34,219.90 1071.87,220.74 1070.38,221.58 1068.88,222.43 1067.36,223.29 1065.82,224.16 1064.28,225.03 1062.71,225.91 1061.13,226.80 1059.54,227.69 1057.94,228.60 1056.31,229.50 1054.68,230.42 1053.03,231.35 1051.37,232.28 1049.69,233.21 1048.00,234.16 1046.30,235.11 1044.58,236.07 1042.85,237.04 1041.11,238.01 1039.35,238.99 1037.58,239.97 1035.80,240.97 1034.00,241.97 1032.20,242.97 1030.38,243.98 1028.54,245.00 1026.70,246.03 1024.84,247.06 1022.98,248.10 1021.09,249.14 1019.20,250.19 1017.30,251.25 1015.38,252.31 1013.46,253.38 1011.52,254.46 1009.57,255.54 1007.61,256.63 1005.64,257.72 1003.66,258.82 1001.66,259.93 999.66,261.04 997.65,262.16 995.62,263.28 993.59,264.41 991.55,265.55 989.49,266.69 987.43,267.83 985.36,268.98 983.27,270.14 981.18,271.30 979.08,272.47 976.97,273.64 974.85,274.82 972.72,276.01 970.58,277.20 968.43,278.39 966.28,279.59 964.11,280.79 961.94,282.00 959.76,283.22 957.57,284.44 955.37,285.66 953.17,286.89 950.95,288.13 948.73,289.37 946.51,290.61 944.27,291.86">
    <lane id="-0_0" index="0" disallow="pedestrian tram rail_urban rail rail_electric rail_fast ship" speed="22.22" length="177.89" width="3.75" shape="1107.53,210.93 1106.44,211.58 1105.32,212.24 1104.19,212.92 1103.03,213.60 1101.86,214.29 1100.68,214.98 1099.47,215.69 1098.25,216.40 1097.01,217.13 1095.76,217.85 1094.48,218.59 1093.20,219.34 1091.89,220.09 1090.57,220.85 1089.23,221.62 1087.88,222.40 1086.51,223.18 1085.13,223.98 1083.73,224.78 1082.31,225.59 1080.88,226.40 1079.43,227.22 1077.97,228.05 1076.49,228.89 1075.00,229.74 1073.49,230.59 1071.97,231.45 1070.43,232.32 1068.88,233.20 1067.31,234.08 1065.73,234.97 1064.14,235.87 1062.53,236.77 1060.90,237.68 1059.26,238.60 1057.61,239.52 1055.95,240.46 1054.27,241.40 1052.58,242.34 1050.87,243.30 1049.15,244.26 1047.42,245.22 1045.67,246.20 1043.92,247.18 1042.14,248.16 1040.36,249.16 1038.56,250.16 1036.76,251.16 1034.93,252.18 1033.10,253.20 1031.26,254.22 1029.40,255.26 1027.53,256.29 1025.65,257.34 1023.75,258.39 1021.85,259.45 1019.93,260.51 1018.01,261.58 1016.07,262.66 1014.12,263.74 1012.16,264.83 1010.19,265.92 1008.21,267.02 1006.21,268.13 1004.21,269.24 1002.20,270.36 1000.17,271.48 998.14,272.61 996.10,273.74 994.04,274.88 991.98,276.03 989.91,277.18 987.83,278.34 985.73,279.50 983.63,280.66 981.52,281.84 979.40,283.02 977.27,284.20 975.14,285.39 972.99,286.58 970.84,287.78 968.67,288.99 966.50,290.19 964.32,291.41 962.13,292.63 959.94,293.85 957.73,295.08 955.52,296.32 953.30,297.55 952.35,298.09" type="driving"/>
    <lane id="-0_1" index="1" disallow="pedestrian tram rail_urban rail rail_electric rail_fast ship" speed="22.22" length="177.89" width="3.75" shape="1105.61,207.71 1104.52,208.36 1103.41,209.02 1102.28,209.69 1101.13,210.37 1099.96,211.05 1098.78,211.75 1097.58,212.45 1096.36,213.16 1095.12,213.88 1093.87,214.61 1092.60,215.35 1091.32,216.09 1090.02,216.84 1088.70,217.60 1087.37,218.37 1086.02,219.15 1084.65,219.93 1083.27,220.72 1081.87,221.52 1080.45,222.33 1079.02,223.14 1077.58,223.96 1076.12,224.79 1074.64,225.63 1073.15,226.48 1071.65,227.33 1070.12,228.19 1068.59,229.05 1067.04,229.93 1065.47,230.81 1063.89,231.70 1062.30,232.60 1060.69,233.50 1059.07,234.41 1057.43,235.33 1055.78,236.25 1054.12,237.18 1052.44,238.12 1050.75,239.07 1049.04,240.02 1047.32,240.98 1045.59,241.95 1043.85,242.92 1042.09,243.90 1040.32,244.89 1038.54,245.88 1036.74,246.88 1034.93,247.89 1033.11,248.90 1031.28,249.92 1029.43,250.94 1027.58,251.98 1025.71,253.02 1023.83,254.06 1021.93,255.11 1020.03,256.17 1018.11,257.23 1016.19,258.30 1014.25,259.38 1012.30,260.46 1010.34,261.55 1008.37,262.64 1006.39,263.74 1004.39,264.85 1002.39,265.96 1000.38,267.08 998.35,268.20 996.32,269.33 994.28,270.46 992.22,271.60 990.16,272.75 988.09,273.90 986.00,275.06 983.91,276.22 981.81,277.39 979.70,278.56 977.58,279.74 975.45,280.92 973.31,282.11 971.17,283.31 969.01,284.50 966.85,285.71 964.68,286.92 962.50,288.13 960.31,289.35 958.11,290.58 955.91,291.81 953.70,293.04 951.48,294.28 950.52,294.81" type="driving"/>
    <lane id="-0_2" index="2" disallow="pedestrian tram rail_urban rail rail_electric rail_fast ship" speed="22.22" length="177.89" width="3.75" shape="1103.69,204.48 1102.60,205.13 1101.49,205.79 1100.37,206.46 1099.22,207.14 1098.06,207.82 1096.88,208.52 1095.68,209.22 1094.47,209.93 1093.24,210.64 1091.99,211.37 1090.72,212.10 1089.44,212.85 1088.14,213.60 1086.83,214.35 1085.50,215.12 1084.15,215.89 1082.79,216.68 1081.40,217.47 1080.01,218.26 1078.60,219.07 1077.17,219.88 1075.73,220.70 1074.27,221.53 1072.79,222.37 1071.30,223.21 1069.80,224.06 1068.28,224.92 1066.75,225.79 1065.20,226.66 1063.63,227.54 1062.05,228.43 1060.46,229.33 1058.85,230.23 1057.23,231.14 1055.60,232.06 1053.95,232.98 1052.28,233.91 1050.61,234.85 1048.92,235.80 1047.21,236.75 1045.50,237.71 1043.76,238.67 1042.02,239.65 1040.26,240.63 1038.49,241.61 1036.71,242.60 1034.92,243.60 1033.11,244.61 1031.29,245.62 1029.46,246.64 1027.61,247.67 1025.75,248.70 1023.89,249.74 1022.01,250.78 1020.11,251.83 1018.21,252.89 1016.29,253.95 1014.37,255.02 1012.43,256.10 1010.48,257.18 1008.52,258.27 1006.55,259.36 1004.57,260.46 1002.57,261.57 1000.57,262.68 998.56,263.80 996.53,264.92 994.50,266.05 992.46,267.18 990.40,268.32 988.34,269.47 986.27,270.62 984.18,271.78 982.09,272.94 979.99,274.11 977.88,275.28 975.76,276.46 973.63,277.64 971.49,278.83 969.34,280.03 967.19,281.23 965.02,282.43 962.85,283.64 960.67,284.86 958.48,286.08 956.29,287.30 954.08,288.53 951.87,289.77 949.65,291.01 948.69,291.54" type="driving"/>
  </edge>