<?xml version='1.0' encoding='UTF-8'?>
<!-- generated on 2022-09-05 19:49:00 by Eclipse SUMO netconvert Version 1.13.0
<configuration xmlns:xsi="http://www.w3.org/2001/XMLSchema-instance" xsi:noNamespaceSchemaLocation="http://sumo.dlr.de/xsd/netconvertConfiguration.xsd">

    <input>
        <opendrive-files value="map\classification\4\64745143\64745143.xodr"/>
    </input>

    <output>
        <output-file value="C:\Users\LinGe\AppData\Local\Temp\tmpxh3d8p0s\64745143.net.xml"/>
    </output>

    <processing>
        <geometry.max-grade.fix value="false"/>
    </processing>

    <tls_building>
        <tls.left-green.time value="0"/>
    </tls_building>

    <junctions>
        <rectangular-lane-cut value="true"/>
    </junctions>

    <report>
        <aggregate-warnings value="5"/>
    </report>

</configuration>
-->
<net xmlns:xsi="http://www.w3.org/2001/XMLSchema-instance" version="1.9" junctionCornerDetail="5" rectangularLaneCut="true" limitTurnSpeed="5.50" xsi:noNamespaceSchemaLocation="http://sumo.dlr.de/xsd/net_file.xsd">
  <location netOffset="1.56,315.43" convBoundary="0.00,0.00,1102.73,1516.69" origBoundary="-1.56,-315.43,1101.18,1201.26" projParameter="!"/>
  <type id="bidirectional" priority="1" speed="1.39" disallow="pedestrian tram rail_urban rail rail_electric rail_fast ship" width="3.65"/>
  <type id="border" priority="0" speed="1.39" disallow="all" discard="1" width="0.10"/>
  <type id="driving" priority="1" speed="13.89" disallow="pedestrian tram rail_urban rail rail_electric rail_fast ship" width="3.65"/>
  <type id="entry" priority="1" speed="22.22" disallow="pedestrian tram rail_urban rail rail_electric rail_fast ship" width="3.65"/>
  <type id="exit" priority="1" speed="22.22" disallow="pedestrian tram rail_urban rail rail_electric rail_fast ship" width="3.65"/>
  <type id="median" priority="0" speed="1.39" disallow="all" discard="1" width="0.10"/>
  <type id="mwyEntry" priority="1" speed="22.22" allow="private emergency authority army vip passenger hov taxi bus coach delivery truck trailer motorcycle evehicle custom1 custom2" width="3.65"/>
  <type id="mwyExit" priority="1" speed="22.22" allow="private emergency authority army vip passenger hov taxi bus coach delivery truck trailer motorcycle evehicle custom1 custom2" width="3.65"/>
  <type id="none" priority="0" speed="1.39" disallow="all" discard="1" width="1.00"/>
  <type id="offRamp" priority="1" speed="22.22" allow="private emergency authority army vip passenger hov taxi bus coach delivery truck trailer motorcycle evehicle custom1 custom2" width="3.65"/>
  <type id="onRamp" priority="1" speed="22.22" allow="private emergency authority army vip passenger hov taxi bus coach delivery truck trailer motorcycle evehicle custom1 custom2" width="3.65"/>
  <type id="parking" priority="1" speed="1.39" disallow="pedestrian tram rail_urban rail rail_electric rail_fast ship" width="2.50"/>
  <type id="rail" priority="3" speed="33.33" allow="rail_urban rail rail_electric rail_fast" width="3.65"/>
  <type id="restricted" priority="0" speed="13.89" disallow="all" width="3.65"/>
  <type id="roadWorks" priority="0" speed="1.39" allow="authority" width="3.65"/>
  <type id="shoulder" priority="0" speed="1.39" disallow="all" discard="1" width="1.00"/>
  <type id="special1" priority="1" speed="22.22" allow="custom1" discard="1" width="3.65"/>
  <type id="special2" priority="1" speed="22.22" allow="custom2" discard="1" width="3.65"/>
  <type id="special3" priority="1" speed="22.22" allow="custom1 custom2" discard="1" width="3.65"/>
  <type id="stop" priority="1" speed="13.89" disallow="pedestrian tram rail_urban rail rail_electric rail_fast ship" width="3.65"/>
  <type id="tram" priority="2" speed="13.89" allow="tram" width="3.65"/>
  <edge id=":0_0" function="internal">
    <lane id=":0_0_0" index="0" disallow="pedestrian tram rail_urban rail rail_electric rail_fast ship" speed="18.06" length="65.42" width="3.75" shape="1006.06,486.50 992.78,495.13 975.82,506.85 960.54,517.70 952.33,523.78"/>
  </edge>
  <edge id=":0_1" function="internal">
    <lane id=":0_1_0" index="0" disallow="pedestrian tram rail_urban rail rail_electric rail_fast ship" speed="22.22" length="65.57" width="3.75" shape="1006.06,486.50 949.85,520.26"/>
    <lane id=":0_1_1" index="1" disallow="pedestrian tram rail_urban rail rail_electric rail_fast ship" speed="22.22" length="65.57" width="3.75" shape="1004.13,483.28 947.92,517.04"/>
    <lane id=":0_1_2" index="2" disallow="pedestrian tram rail_urban rail rail_electric rail_fast ship" speed="22.22" length="65.57" width="3.75" shape="1002.20,480.07 945.98,513.83"/>
  </edge>
  <edge id=":1_0" function="internal">
    <lane id=":1_0_0" index="0" disallow="pedestrian tram rail_urban rail rail_electric rail_fast ship" speed="19.44" length="47.47" width="3.75" shape="416.72,856.23 406.60,864.44 395.91,874.15 386.90,882.93 381.81,888.33"/>
  </edge>
  <edge id=":1_1" function="internal">
    <lane id=":1_1_0" index="0" disallow="pedestrian tram rail_urban rail rail_electric rail_fast ship" speed="22.22" length="47.57" width="3.75" shape="416.72,856.23 378.89,884.87"/>
    <lane id=":1_1_1" index="1" disallow="pedestrian tram rail_urban rail rail_electric rail_fast ship" speed="22.22" length="47.57" width="3.75" shape="414.50,853.20 376.58,881.92"/>
    <lane id=":1_1_2" index="2" disallow="pedestrian tram rail_urban rail rail_electric rail_fast ship" speed="22.22" length="47.57" width="3.75" shape="412.29,850.17 374.27,878.96"/>
  </edge>
  <edge id=":10_0" function="internal">
    <lane id=":10_0_0" index="0" disallow="pedestrian tram rail_urban rail rail_electric rail_fast ship" speed="22.22" length="3.00" width="3.75" shape="396.89,461.95,13.23 399.86,462.34,13.14"/>
  </edge>
  <edge id=":10_1" function="internal">
    <lane id=":10_1_0" index="0" disallow="pedestrian tram rail_urban rail rail_electric rail_fast ship" speed="16.67" length="3.00" width="3.75" shape="396.89,461.95,13.23 399.87,462.34,13.18"/>
  </edge>
  <edge id=":11_0" function="internal">
    <lane id=":11_0_0" index="0" disallow="pedestrian tram rail_urban rail rail_electric rail_fast ship" speed="18.06" length="28.46" width="3.75" shape="974.79,1377.35,19.97 976.17,1381.74,19.98 978.26,1387.65,19.98 981.57,1394.84,19.99 986.62,1403.09,20.00"/>
  </edge>
  <edge id=":11_1" function="internal">
    <lane id=":11_1_0" index="0" disallow="pedestrian tram rail_urban rail rail_electric rail_fast ship" speed="22.22" length="27.57" width="3.75" shape="970.83,1380.49,20.00 986.62,1403.09,20.00"/>
    <lane id=":11_1_1" index="1" disallow="pedestrian tram rail_urban rail rail_electric rail_fast ship" speed="22.22" length="27.57" width="3.75" shape="967.75,1382.64,20.00 983.55,1405.24,20.00"/>
    <lane id=":11_1_2" index="2" disallow="pedestrian tram rail_urban rail rail_electric rail_fast ship" speed="22.22" length="27.57" width="3.75" shape="964.68,1384.79,20.00 980.47,1407.39,20.00"/>
  </edge>
  <edge id=":12_0" function="internal">
    <lane id=":12_0_0" index="0" disallow="pedestrian tram rail_urban rail rail_electric rail_fast ship" speed="19.44" length="39.92" width="3.75" shape="667.35,997.98,19.84 664.97,992.21,19.87 660.59,983.23,19.91 654.88,972.85,19.95 648.45,962.90,20.00"/>
  </edge>
  <edge id=":12_1" function="internal">
    <lane id=":12_1_0" index="0" disallow="pedestrian tram rail_urban rail rail_electric rail_fast ship" speed="22.22" length="39.18" width="3.75" shape="671.26,994.75,20.00 648.45,962.90,20.00"/>
    <lane id=":12_1_1" index="1" disallow="pedestrian tram rail_urban rail rail_electric rail_fast ship" speed="22.22" length="39.18" width="3.75" shape="674.31,992.57,20.00 651.50,960.71,20.00"/>
    <lane id=":12_1_2" index="2" disallow="pedestrian tram rail_urban rail rail_electric rail_fast ship" speed="22.22" length="39.18" width="3.75" shape="677.36,990.39,20.00 654.55,958.53,20.00"/>
  </edge>
  <edge id=":13_0" function="internal">
    <lane id=":13_0_0" index="0" disallow="pedestrian tram rail_urban rail rail_electric rail_fast ship" speed="22.22" length="31.22" width="3.75" shape="761.53,601.36,0.03 766.31,600.26,0.03 773.02,598.22,0.02 781.21,594.91,0.01 790.44,589.99"/>
  </edge>
  <edge id=":13_1" function="internal">
    <lane id=":13_1_0" index="0" disallow="pedestrian tram rail_urban rail rail_electric rail_fast ship" speed="22.22" length="30.27" width="3.75" shape="764.59,605.74 790.44,589.99"/>
    <lane id=":13_1_1" index="1" disallow="pedestrian tram rail_urban rail rail_electric rail_fast ship" speed="22.22" length="30.27" width="3.75" shape="766.54,608.94 792.39,593.19"/>
    <lane id=":13_1_2" index="2" disallow="pedestrian tram rail_urban rail rail_electric rail_fast ship" speed="22.22" length="30.27" width="3.75" shape="768.49,612.14 794.34,596.39"/>
  </edge>
  <edge id=":14_0" function="internal">
    <lane id=":14_0_0" index="0" disallow="pedestrian tram rail_urban rail rail_electric rail_fast ship" speed="18.06" length="24.55" width="3.75" shape="217.74,407.75,19.99 218.68,411.94,20.00 220.62,416.99,20.00 224.01,422.74,20.00 229.27,429.00,20.00"/>
  </edge>
  <edge id=":14_1" function="internal">
    <lane id=":14_1_0" index="0" disallow="pedestrian tram rail_urban rail rail_electric rail_fast ship" speed="22.22" length="22.96" width="3.75" shape="213.16,412.62,20.00 229.27,429.00,20.00"/>
    <lane id=":14_1_1" index="1" disallow="pedestrian tram rail_urban rail rail_electric rail_fast ship" speed="22.22" length="22.96" width="3.75" shape="210.49,415.25,20.00 226.60,431.63,20.00"/>
    <lane id=":14_1_2" index="2" disallow="pedestrian tram rail_urban rail rail_electric rail_fast ship" speed="22.22" length="22.96" width="3.75" shape="207.82,417.89,20.00 223.92,434.25,20.00"/>
  </edge>
  <edge id=":14.13_0" function="internal">
    <lane id=":14.13_0_0" index="0" disallow="pedestrian tram rail_urban rail rail_electric rail_fast ship" speed="22.22" length="0.30" width="3.75" shape="490.58,712.14,20.00 490.77,712.38,20.00"/>
    <lane id=":14.13_0_1" index="1" disallow="pedestrian tram rail_urban rail rail_electric rail_fast ship" speed="22.22" length="0.30" width="3.75" shape="487.67,714.50,20.00 487.85,714.73,20.00"/>
    <lane id=":14.13_0_2" index="2" disallow="pedestrian tram rail_urban rail rail_electric rail_fast ship" speed="22.22" length="0.30" width="3.75" shape="484.75,716.86,20.00 484.94,717.09,20.00"/>
  </edge>
  <edge id=":15_0" function="internal">
    <lane id=":15_0_0" index="0" disallow="pedestrian tram rail_urban rail rail_electric rail_fast ship" speed="16.67" length="26.28" width="3.75" shape="246.79,1005.78,0.01 242.50,1006.91,0.01 237.14,1009.08,0.00 230.90,1012.71,0.00 224.00,1018.24"/>
  </edge>
  <edge id=":15_1" function="internal">
    <lane id=":15_1_0" index="0" disallow="pedestrian tram rail_urban rail rail_electric rail_fast ship" speed="22.22" length="24.90" width="3.75" shape="242.32,1001.41 224.00,1018.24"/>
    <lane id=":15_1_1" index="1" disallow="pedestrian tram rail_urban rail rail_electric rail_fast ship" speed="22.22" length="24.90" width="3.75" shape="239.79,998.64 221.46,1015.48"/>
    <lane id=":15_1_2" index="2" disallow="pedestrian tram rail_urban rail rail_electric rail_fast ship" speed="22.22" length="24.90" width="3.75" shape="237.26,995.87 218.91,1012.73"/>
  </edge>
  <edge id=":19.18_0" function="internal">
    <lane id=":19.18_0_0" index="0" disallow="pedestrian tram rail_urban rail rail_electric rail_fast ship" speed="22.22" length="0.30" width="3.75" shape="473.07,726.67,20.00 472.89,726.44,20.00"/>
    <lane id=":19.18_0_1" index="1" disallow="pedestrian tram rail_urban rail rail_electric rail_fast ship" speed="22.22" length="0.30" width="3.75" shape="475.99,724.32,20.00 475.80,724.08,20.00"/>
    <lane id=":19.18_0_2" index="2" disallow="pedestrian tram rail_urban rail rail_electric rail_fast ship" speed="22.22" length="0.30" width="3.75" shape="478.91,721.96,20.00 478.72,721.73,20.00"/>
  </edge>
  <edge id=":2_0" function="internal">
    <lane id=":2_0_0" index="0" disallow="pedestrian tram rail_urban rail rail_electric rail_fast ship" speed="18.06" length="66.62" width="3.75" shape="124.41,1081.34 135.56,1069.83 149.82,1054.37 162.64,1040.14 169.50,1032.31"/>
  </edge>
  <edge id=":2_1" function="internal">
    <lane id=":2_1_0" index="0" disallow="pedestrian tram rail_urban rail rail_electric rail_fast ship" speed="22.22" length="66.81" width="3.75" shape="124.41,1081.34 172.70,1035.12"/>
    <lane id=":2_1_1" index="1" disallow="pedestrian tram rail_urban rail rail_electric rail_fast ship" speed="22.22" length="66.81" width="3.75" shape="127.01,1084.03 175.28,1037.84"/>
    <lane id=":2_1_2" index="2" disallow="pedestrian tram rail_urban rail rail_electric rail_fast ship" speed="22.22" length="66.81" width="3.75" shape="129.62,1086.73 177.86,1040.57"/>
  </edge>
  <edge id=":2.1_0" function="internal">
    <lane id=":2.1_0_0" index="0" disallow="pedestrian tram rail_urban rail rail_electric rail_fast ship" speed="22.22" length="0.30" width="3.75" shape="419.07,854.52 418.83,854.69"/>
    <lane id=":2.1_0_1" index="1" disallow="pedestrian tram rail_urban rail rail_electric rail_fast ship" speed="22.22" length="0.30" width="3.75" shape="416.86,851.48 416.62,851.66"/>
    <lane id=":2.1_0_2" index="2" disallow="pedestrian tram rail_urban rail rail_electric rail_fast ship" speed="22.22" length="0.30" width="3.75" shape="414.66,848.45 414.41,848.63"/>
  </edge>
  <edge id=":23.22_0" function="internal">
    <lane id=":23.22_0_0" index="0" disallow="pedestrian tram rail_urban rail rail_electric rail_fast ship" speed="19.44" length="0.30" width="3.75" shape="516.20,1283.24,9.51 515.92,1283.14,9.51"/>
  </edge>
  <edge id=":26.25_0" function="internal">
    <lane id=":26.25_0_0" index="0" disallow="pedestrian tram rail_urban rail rail_electric rail_fast ship" speed="13.89" length="0.30" width="3.75" shape="297.52,748.15,9.55 297.53,747.85,9.56"/>
  </edge>
  <edge id=":29.28_0" function="internal">
    <lane id=":29.28_0_0" index="0" disallow="pedestrian tram rail_urban rail rail_electric rail_fast ship" speed="22.22" length="0.30" width="3.75" shape="587.92,488.02,7.74 588.21,488.09,7.73"/>
  </edge>
  <edge id=":3_0" function="internal">
    <lane id=":3_0_0" index="0" disallow="pedestrian tram rail_urban rail rail_electric rail_fast ship" speed="22.22" length="55.81" width="3.75" shape="158.85,357.76,20.00 169.34,367.53,20.00 182.42,378.87,20.00 194.28,388.77,20.00 201.12,394.18,20.00"/>
  </edge>
  <edge id=":3_1" function="internal">
    <lane id=":3_1_0" index="0" disallow="pedestrian tram rail_urban rail rail_electric rail_fast ship" speed="22.22" length="56.01" width="3.75" shape="158.85,357.76,20.00 198.29,397.55,20.00"/>
    <lane id=":3_1_1" index="1" disallow="pedestrian tram rail_urban rail rail_electric rail_fast ship" speed="22.22" length="56.01" width="3.75" shape="156.19,360.41,20.00 195.62,400.18,20.00"/>
    <lane id=":3_1_2" index="2" disallow="pedestrian tram rail_urban rail rail_electric rail_fast ship" speed="22.22" length="56.01" width="3.75" shape="153.53,363.05,20.00 192.96,402.82,20.00"/>
  </edge>
  <edge id=":31.30_0" function="internal">
    <lane id=":31.30_0_0" index="0" disallow="pedestrian tram rail_urban rail rail_electric rail_fast ship" speed="13.89" length="0.30" width="3.75" shape="853.00,722.10,5.94 853.00,722.39,5.95"/>
  </edge>
  <edge id=":33.32_0" function="internal">
    <lane id=":33.32_0_0" index="0" disallow="pedestrian tram rail_urban rail rail_electric rail_fast ship" speed="16.67" length="0.29" width="3.75" shape="450.83,1129.21,9.77 451.10,1129.33,9.78"/>
  </edge>
  <edge id=":35.34_0" function="internal">
    <lane id=":35.34_0_0" index="0" disallow="pedestrian tram rail_urban rail rail_electric rail_fast ship" speed="22.22" length="0.28" width="3.75" shape="417.98,598.42,4.60 417.97,598.14,4.60"/>
  </edge>
  <edge id=":37.36_0" function="internal">
    <lane id=":37.36_0_0" index="0" disallow="pedestrian tram rail_urban rail rail_electric rail_fast ship" speed="13.89" length="0.30" width="3.75" shape="828.19,174.22,13.35 828.14,173.92,13.35"/>
  </edge>
  <edge id=":39.38_0" function="internal">
    <lane id=":39.38_0_0" index="0" disallow="pedestrian tram rail_urban rail rail_electric rail_fast ship" speed="11.11" length="0.30" width="3.75" shape="997.13,963.92,6.66 997.04,964.21,6.66"/>
  </edge>
  <edge id=":4_0" function="internal">
    <lane id=":4_0_0" index="0" disallow="pedestrian tram rail_urban rail rail_electric rail_fast ship" speed="20.83" length="38.63" width="3.75" shape="981.50,1435.46,20.00 974.39,1426.25,20.00 966.83,1417.71,20.00 960.17,1410.88,20.00 955.74,1406.76,20.00"/>
  </edge>
  <edge id=":4_1" function="internal">
    <lane id=":4_1_0" index="0" disallow="pedestrian tram rail_urban rail rail_electric rail_fast ship" speed="22.22" length="38.89" width="3.75" shape="981.50,1435.46,20.00 959.22,1403.59,20.00"/>
    <lane id=":4_1_1" index="1" disallow="pedestrian tram rail_urban rail rail_electric rail_fast ship" speed="22.22" length="38.89" width="3.75" shape="984.57,1433.32,20.00 962.30,1401.44,20.00"/>
    <lane id=":4_1_2" index="2" disallow="pedestrian tram rail_urban rail rail_electric rail_fast ship" speed="22.22" length="38.89" width="3.75" shape="987.65,1431.17,20.00 965.37,1399.29,20.00"/>
  </edge>
  <edge id=":5_0" function="internal">
    <lane id=":5_0_0" index="0" disallow="pedestrian tram rail_urban rail rail_electric rail_fast ship" speed="20.83" length="26.53" width="3.75" shape="130.96,1115.30,0.05 126.69,1116.56,0.04 121.35,1118.93,0.03 115.16,1122.80,0.02 108.35,1128.58"/>
  </edge>
  <edge id=":5_1" function="internal">
    <lane id=":5_1_0" index="0" disallow="pedestrian tram rail_urban rail rail_electric rail_fast ship" speed="22.22" length="25.13" width="3.75" shape="126.36,1111.06 108.35,1128.58"/>
    <lane id=":5_1_1" index="1" disallow="pedestrian tram rail_urban rail rail_electric rail_fast ship" speed="22.22" length="25.13" width="3.75" shape="123.75,1108.37 105.74,1125.90"/>
    <lane id=":5_1_2" index="2" disallow="pedestrian tram rail_urban rail rail_electric rail_fast ship" speed="22.22" length="25.13" width="3.75" shape="121.14,1105.68 103.12,1123.21"/>
  </edge>
  <edge id=":6_0" function="internal">
    <lane id=":6_0_0" index="0" disallow="pedestrian tram rail_urban rail rail_electric rail_fast ship" speed="19.44" length="2.99" width="3.75" shape="828.01,1354.23,15.40 825.09,1353.58,15.31"/>
  </edge>
  <edge id=":6_1" function="internal">
    <lane id=":6_1_0" index="0" disallow="pedestrian tram rail_urban rail rail_electric rail_fast ship" speed="20.83" length="3.00" width="3.75" shape="828.01,1354.23,15.40 825.09,1353.57,15.35"/>
  </edge>
  <edge id=":7_0" function="internal">
    <lane id=":7_0_0" index="0" disallow="pedestrian tram rail_urban rail rail_electric rail_fast ship" speed="18.06" length="69.64" width="3.75" shape="186.91,424.48,20.00 179.96,416.11,20.00 166.81,400.78,20.00 152.25,384.20,20.00 141.04,372.09,20.00"/>
  </edge>
  <edge id=":7_1" function="internal">
    <lane id=":7_1_0" index="0" disallow="pedestrian tram rail_urban rail rail_electric rail_fast ship" speed="22.22" length="69.31" width="3.75" shape="189.82,421.32,20.00 141.04,372.09,20.00"/>
    <lane id=":7_1_1" index="1" disallow="pedestrian tram rail_urban rail rail_electric rail_fast ship" speed="22.22" length="69.31" width="3.75" shape="192.49,418.68,20.00 143.70,369.45,20.00"/>
    <lane id=":7_1_2" index="2" disallow="pedestrian tram rail_urban rail rail_electric rail_fast ship" speed="22.22" length="69.31" width="3.75" shape="195.16,416.05,20.00 146.36,366.80,20.00"/>
  </edge>
  <edge id=":8_0" function="internal">
    <lane id=":8_0_0" index="0" disallow="pedestrian tram rail_urban rail rail_electric rail_fast ship" speed="13.89" length="2.99" width="3.75" shape="283.87,817.95,6.97 284.73,815.09,7.08"/>
  </edge>
  <edge id=":8_1" function="internal">
    <lane id=":8_1_0" index="0" disallow="pedestrian tram rail_urban rail rail_electric rail_fast ship" speed="13.89" length="3.00" width="3.75" shape="283.87,817.95,6.97 284.74,815.08,7.03"/>
  </edge>
  <edge id=":8.7_0" function="internal">
    <lane id=":8.7_0_0" index="0" disallow="pedestrian tram rail_urban rail rail_electric rail_fast ship" speed="22.22" length="0.30" width="3.75" shape="405.44,836.30 405.69,836.12"/>
    <lane id=":8.7_0_1" index="1" disallow="pedestrian tram rail_urban rail rail_electric rail_fast ship" speed="22.22" length="0.30" width="3.75" shape="407.65,839.33 407.89,839.15"/>
    <lane id=":8.7_0_2" index="2" disallow="pedestrian tram rail_urban rail rail_electric rail_fast ship" speed="22.22" length="0.30" width="3.75" shape="409.86,842.36 410.09,842.18"/>
  </edge>
  <edge id=":9_0" function="internal">
    <lane id=":9_0_0" index="0" disallow="pedestrian tram rail_urban rail rail_electric rail_fast ship" speed="22.22" length="31.56" width="3.75" shape="835.30,556.30,0.13 840.16,555.33,0.11 846.99,553.32,0.08 855.30,549.99,0.04 864.60,545.06"/>
  </edge>
  <edge id=":9_1" function="internal">
    <lane id=":9_1_0" index="0" disallow="pedestrian tram rail_urban rail rail_electric rail_fast ship" speed="22.22" length="30.51" width="3.75" shape="838.48,560.84 864.60,545.06"/>
    <lane id=":9_1_1" index="1" disallow="pedestrian tram rail_urban rail rail_electric rail_fast ship" speed="22.22" length="30.51" width="3.75" shape="840.43,564.05 866.54,548.27"/>
    <lane id=":9_1_2" index="2" disallow="pedestrian tram rail_urban rail rail_electric rail_fast ship" speed="22.22" length="30.51" width="3.75" shape="842.37,567.26 868.47,551.48"/>
  </edge>
  <edge id="-0" from="0.begin" to="0" priority="1" type="driving" shape="1102.73,417.05 1101.79,417.64 1100.82,418.24 1099.82,418.86 1098.80,419.50 1097.74,420.15 1096.66,420.82 1095.55,421.50 1094.42,422.20 1093.25,422.91 1092.06,423.64 1090.85,424.39 1089.60,425.15 1088.33,425.93 1087.04,426.72 1085.72,427.52 1084.37,428.35 1083.00,429.18 1081.60,430.03 1080.18,430.90 1078.73,431.78 1077.26,432.67 1075.76,433.58 1074.24,434.50 1072.69,435.44 1071.12,436.39 1069.53,437.36 1067.91,438.34 1066.27,439.33 1064.60,440.34 1062.91,441.36 1061.20,442.39 1059.47,443.43 1057.71,444.49 1055.94,445.57 1054.14,446.65 1052.31,447.75 1050.47,448.86 1048.60,449.99 1046.71,451.12 1044.81,452.27 1042.88,453.44 1040.92,454.61 1038.95,455.80 1036.96,456.99 1034.95,458.21 1032.92,459.43 1030.86,460.66 1028.79,461.91 1026.70,463.16 1024.59,464.43 1022.46,465.71 1020.31,467.01 1018.14,468.31 1015.95,469.62 1013.75,470.95 1011.52,472.28 1009.28,473.63 1007.02,474.99 1004.74,476.35 1002.45,477.73 1000.13,479.12 997.80,480.52">
    <lane id="-0_0" index="0" disallow="pedestrian tram rail_urban rail rail_electric rail_fast ship" speed="22.22" length="118.72" width="3.75" shape="1107.69,425.01 1106.74,425.60 1105.77,426.21 1104.76,426.83 1103.73,427.47 1102.67,428.12 1101.58,428.80 1100.47,429.48 1099.33,430.18 1098.16,430.90 1096.96,431.63 1095.74,432.38 1094.50,433.15 1093.22,433.93 1091.92,434.72 1090.60,435.53 1089.25,436.35 1087.87,437.19 1086.47,438.04 1085.05,438.91 1083.60,439.79 1082.12,440.69 1080.62,441.60 1079.10,442.52 1077.55,443.46 1075.98,444.41 1074.38,445.38 1072.76,446.36 1071.12,447.35 1069.45,448.36 1067.76,449.38 1066.05,450.41 1064.31,451.46 1062.56,452.52 1060.78,453.60 1058.98,454.68 1057.15,455.78 1055.31,456.89 1053.44,458.02 1051.55,459.16 1049.64,460.31 1047.71,461.47 1045.76,462.64 1043.79,463.83 1041.79,465.03 1039.78,466.24 1037.75,467.46 1035.69,468.70 1033.62,469.94 1031.53,471.20 1029.42,472.47 1027.29,473.75 1025.14,475.04 1022.97,476.34 1020.78,477.66 1018.57,478.98 1016.35,480.32 1014.11,481.67 1011.85,483.02 1009.57,484.39 1007.27,485.77 1006.06,486.50" type="driving"/>
    <lane id="-0_1" index="1" disallow="pedestrian tram rail_urban rail rail_electric rail_fast ship" speed="22.22" length="118.72" width="3.75" shape="1105.71,421.83 1104.76,422.41 1103.79,423.02 1102.79,423.64 1101.76,424.28 1100.70,424.93 1099.61,425.60 1098.50,426.29 1097.36,426.99 1096.20,427.71 1095.00,428.44 1093.78,429.19 1092.54,429.95 1091.27,430.73 1089.97,431.52 1088.65,432.33 1087.30,433.15 1085.92,433.99 1084.52,434.84 1083.10,435.70 1081.65,436.59 1080.17,437.48 1078.68,438.39 1077.15,439.31 1075.61,440.25 1074.03,441.20 1072.44,442.17 1070.82,443.15 1069.18,444.14 1067.51,445.15 1065.82,446.17 1064.11,447.20 1062.38,448.25 1060.62,449.31 1058.84,450.38 1057.04,451.47 1055.22,452.57 1053.37,453.68 1051.50,454.81 1049.62,455.94 1047.71,457.09 1045.78,458.26 1043.83,459.43 1041.85,460.62 1039.86,461.81 1037.85,463.03 1035.81,464.25 1033.76,465.48 1031.69,466.73 1029.60,467.99 1027.49,469.26 1025.35,470.54 1023.20,471.83 1021.04,473.13 1018.85,474.44 1016.64,475.77 1014.42,477.10 1012.18,478.45 1009.92,479.81 1007.64,481.18 1005.34,482.56 1004.13,483.28" type="driving"/>
    <lane id="-0_2" index="2" disallow="pedestrian tram rail_urban rail rail_electric rail_fast ship" speed="22.22" length="118.72" width="3.75" shape="1103.72,418.64 1102.78,419.23 1101.81,419.83 1100.81,420.46 1099.78,421.09 1098.73,421.74 1097.65,422.41 1096.54,423.10 1095.40,423.80 1094.23,424.51 1093.04,425.24 1091.83,425.99 1090.58,426.75 1089.31,427.53 1088.02,428.32 1086.69,429.12 1085.35,429.95 1083.97,430.78 1082.57,431.63 1081.15,432.50 1079.70,433.38 1078.23,434.28 1076.73,435.18 1075.21,436.11 1073.66,437.04 1072.09,438.00 1070.50,438.96 1068.88,439.94 1067.24,440.93 1065.57,441.94 1063.88,442.96 1062.17,443.99 1060.44,445.04 1058.68,446.10 1056.90,447.17 1055.10,448.26 1053.28,449.36 1051.44,450.47 1049.57,451.59 1047.68,452.73 1045.77,453.88 1043.84,455.04 1041.89,456.22 1039.92,457.40 1037.93,458.60 1035.92,459.81 1033.88,461.03 1031.83,462.27 1029.76,463.51 1027.67,464.77 1025.55,466.04 1023.42,467.32 1021.27,468.61 1019.10,469.92 1016.92,471.23 1014.71,472.55 1012.49,473.89 1010.25,475.24 1007.99,476.59 1005.71,477.96 1003.41,479.34 1002.20,480.07" type="driving"/>
  </edge>