<?xml version='1.0' encoding='UTF-8'?>
<!-- generated on 2022-11-12 23:39:03 by Eclipse SUMO netconvert Version 1.13.0
<configuration xmlns:xsi="http://www.w3.org/2001/XMLSchema-instance" xsi:noNamespaceSchemaLocation="http://sumo.dlr.de/xsd/netconvertConfiguration.xsd">

    <input>
        <opendrive-files value="map_v4\13\51655574\51655574.xodr"/>
    </input>

    <output>
        <output-file value="C:\Users\LinGe\AppData\Local\Temp\tmpetlhikix\51655574.net.xml"/>
    </output>

    <processing>
        <geometry.max-grade.fix value="false"/>
    </processing>

    <tls_building>
        <tls.left-green.time value="0"/>
    </tls_building>

    <junctions>
        <rectangular-lane-cut value="true"/>
    </junctions>

    <report>
        <aggregate-warnings value="5"/>
    </report>

</configuration>
-->
<net xmlns:xsi="http://www.w3.org/2001/XMLSchema-instance" version="1.9" junctionCornerDetail="5" rectangularLaneCut="true" limitTurnSpeed="5.50" xsi:noNamespaceSchemaLocation="http://sumo.dlr.de/xsd/net_file.xsd">
  <location netOffset="1.56,101.26" convBoundary="0.00,0.00,1102.73,1302.51" origBoundary="-1.56,-101.26,1101.18,1201.26" projParameter="!"/>
  <type id="bidirectional" priority="1" speed="1.39" disallow="pedestrian tram rail_urban rail rail_electric rail_fast ship" width="3.65"/>
  <type id="border" priority="0" speed="1.39" disallow="all" discard="1" width="0.10"/>
  <type id="driving" priority="1" speed="13.89" disallow="pedestrian tram rail_urban rail rail_electric rail_fast ship" width="3.65"/>
  <type id="entry" priority="1" speed="22.22" disallow="pedestrian tram rail_urban rail rail_electric rail_fast ship" width="3.65"/>
  <type id="exit" priority="1" speed="22.22" disallow="pedestrian tram rail_urban rail rail_electric rail_fast ship" width="3.65"/>
  <type id="median" priority="0" speed="1.39" disallow="all" discard="1" width="0.10"/>
  <type id="mwyEntry" priority="1" speed="22.22" allow="private emergency authority army vip passenger hov taxi bus coach delivery truck trailer motorcycle evehicle custom1 custom2" width="3.65"/>
  <type id="mwyExit" priority="1" speed="22.22" allow="private emergency authority army vip passenger hov taxi bus coach delivery truck trailer motorcycle evehicle custom1 custom2" width="3.65"/>
  <type id="none" priority="0" speed="1.39" disallow="all" discard="1" width="1.00"/>
  <type id="offRamp" priority="1" speed="22.22" allow="private emergency authority army vip passenger hov taxi bus coach delivery truck trailer motorcycle evehicle custom1 custom2" width="3.65"/>
  <type id="onRamp" priority="1" speed="22.22" allow="private emergency authority army vip passenger hov taxi bus coach delivery truck trailer motorcycle evehicle custom1 custom2" width="3.65"/>
  <type id="parking" priority="1" speed="1.39" disallow="pedestrian tram rail_urban rail rail_electric rail_fast ship" width="2.50"/>
  <type id="rail" priority="3" speed="33.33" allow="rail_urban rail rail_electric rail_fast" width="3.65"/>
  <type id="restricted" priority="0" speed="13.89" disallow="all" width="3.65"/>
  <type id="roadWorks" priority="0" speed="1.39" allow="authority" width="3.65"/>
  <type id="shoulder" priority="0" speed="1.39" disallow="all" discard="1" width="1.00"/>
  <type id="special1" priority="1" speed="22.22" allow="custom1" discard="1" width="3.65"/>
  <type id="special2" priority="1" speed="22.22" allow="custom2" discard="1" width="3.65"/>
  <type id="special3" priority="1" speed="22.22" allow="custom1 custom2" discard="1" width="3.65"/>
  <type id="stop" priority="1" speed="13.89" disallow="pedestrian tram rail_urban rail rail_electric rail_fast ship" width="3.65"/>
  <type id="tram" priority="2" speed="13.89" allow="tram" width="3.65"/>
  <edge id=":0_0" function="internal">
    <lane id=":0_0_0" index="0" disallow="pedestrian tram rail_urban rail rail_electric rail_fast ship" speed="19.44" length="32.21" width="3.75" shape="875.04,418.25 867.41,425.66,0.05 861.44,432.63,0.09 857.08,438.54,0.12 854.31,442.76,0.14"/>
  </edge>
  <edge id=":0_1" function="internal">
    <lane id=":0_1_0" index="0" disallow="pedestrian tram rail_urban rail rail_electric rail_fast ship" speed="22.22" length="32.47" width="3.75" shape="875.04,418.25 850.59,439.64"/>
    <lane id=":0_1_1" index="1" disallow="pedestrian tram rail_urban rail rail_electric rail_fast ship" speed="22.22" length="32.47" width="3.75" shape="872.56,415.43 848.13,436.81"/>
    <lane id=":0_1_2" index="2" disallow="pedestrian tram rail_urban rail rail_electric rail_fast ship" speed="22.22" length="32.47" width="3.75" shape="870.09,412.62 845.66,433.99"/>
  </edge>
  <edge id=":1_0" function="internal">
    <lane id=":1_0_0" index="0" disallow="pedestrian tram rail_urban rail rail_electric rail_fast ship" speed="15.28" length="64.27" width="3.75" shape="71.96,945.41 85.10,936.89 101.75,925.42 116.71,914.81 124.80,908.86"/>
  </edge>
  <edge id=":1_1" function="internal">
    <lane id=":1_1_0" index="0" disallow="pedestrian tram rail_urban rail rail_electric rail_fast ship" speed="22.22" length="64.41" width="3.75" shape="71.96,945.41 127.25,912.38"/>
    <lane id=":1_1_1" index="1" disallow="pedestrian tram rail_urban rail rail_electric rail_fast ship" speed="22.22" length="64.41" width="3.75" shape="73.88,948.63 129.18,915.60"/>
    <lane id=":1_1_2" index="2" disallow="pedestrian tram rail_urban rail rail_electric rail_fast ship" speed="22.22" length="64.41" width="3.75" shape="75.81,951.85 131.10,918.82"/>
  </edge>
  <edge id=":10_0" function="internal">
    <lane id=":10_0_0" index="0" disallow="pedestrian tram rail_urban rail rail_electric rail_fast ship" speed="19.44" length="128.50" width="3.75" shape="927.13,1097.62,20.00 997.63,1205.05,20.00"/>
  </edge>
  <edge id=":10_1" function="internal">
    <lane id=":10_1_0" index="0" disallow="pedestrian tram rail_urban rail rail_electric rail_fast ship" speed="22.22" length="128.32" width="3.75" shape="923.89,1100.04,20.00 997.63,1205.05,20.00"/>
    <lane id=":10_1_1" index="1" disallow="pedestrian tram rail_urban rail rail_electric rail_fast ship" speed="22.22" length="128.32" width="3.75" shape="920.82,1102.19,20.00 994.56,1207.21,20.00"/>
    <lane id=":10_1_2" index="2" disallow="pedestrian tram rail_urban rail rail_electric rail_fast ship" speed="22.22" length="128.32" width="3.75" shape="917.76,1104.35,20.00 991.49,1209.36,20.00"/>
  </edge>
  <edge id=":11_0" function="internal">
    <lane id=":11_0_0" index="0" disallow="pedestrian tram rail_urban rail rail_electric rail_fast ship" speed="16.67" length="2.99" width="3.75" shape="808.44,647.03,5.64 808.52,650.02,5.72"/>
  </edge>
  <edge id=":11_1" function="internal">
    <lane id=":11_1_0" index="0" disallow="pedestrian tram rail_urban rail rail_electric rail_fast ship" speed="15.28" length="3.01" width="3.75" shape="808.44,647.03,5.64 808.52,650.03,5.68"/>
  </edge>
  <edge id=":12_0" function="internal">
    <lane id=":12_0_0" index="0" disallow="pedestrian tram rail_urban rail rail_electric rail_fast ship" speed="19.44" length="44.15" width="3.75" shape="676.43,411.04,6.78 684.72,410.56,6.78 698.45,409.51,6.76 712.17,408.35,6.75 720.44,407.51,6.74"/>
  </edge>
  <edge id=":12_1" function="internal">
    <lane id=":12_1_0" index="0" disallow="pedestrian tram rail_urban rail rail_electric rail_fast ship" speed="18.06" length="43.75" width="3.75" shape="677.34,415.03,6.82 720.44,407.51,6.74"/>
  </edge>
  <edge id=":13_0" function="internal">
    <lane id=":13_0_0" index="0" disallow="pedestrian tram rail_urban rail rail_electric rail_fast ship" speed="16.67" length="55.99" width="3.75" shape="815.23,765.59,12.00 815.79,775.73,12.01 816.93,793.53,12.03 818.16,811.33,12.05 818.98,821.45,12.06"/>
  </edge>
  <edge id=":13_1" function="internal">
    <lane id=":13_1_0" index="0" disallow="pedestrian tram rail_urban rail rail_electric rail_fast ship" speed="16.67" length="55.70" width="3.75" shape="811.32,766.28,11.95 818.98,821.45,12.06"/>
  </edge>
  <edge id=":14_0" function="internal">
    <lane id=":14_0_0" index="0" disallow="pedestrian tram rail_urban rail rail_electric rail_fast ship" speed="16.67" length="24.57" width="3.75" shape="516.44,913.01,6.94 492.92,905.92,6.89"/>
  </edge>
  <edge id=":14_1" function="internal">
    <lane id=":14_1_0" index="0" disallow="pedestrian tram rail_urban rail rail_electric rail_fast ship" speed="19.44" length="24.19" width="3.75" shape="516.89,908.80,6.96 511.71,908.67,6.94 504.83,907.99,6.92 497.99,907.00,6.91 492.92,905.92,6.89"/>
  </edge>
  <edge id=":14.13_0" function="internal">
    <lane id=":14.13_0_0" index="0" disallow="pedestrian tram rail_urban rail rail_electric rail_fast ship" speed="22.22" length="0.30" width="3.75" shape="458.61,494.96,20.00 458.43,494.73,20.00"/>
    <lane id=":14.13_0_1" index="1" disallow="pedestrian tram rail_urban rail rail_electric rail_fast ship" speed="22.22" length="0.30" width="3.75" shape="461.53,492.61,20.00 461.34,492.37,20.00"/>
    <lane id=":14.13_0_2" index="2" disallow="pedestrian tram rail_urban rail rail_electric rail_fast ship" speed="22.22" length="0.30" width="3.75" shape="464.45,490.25,20.00 464.26,490.02,20.00"/>
  </edge>
  <edge id=":15_0" function="internal">
    <lane id=":15_0_0" index="0" disallow="pedestrian tram rail_urban rail rail_electric rail_fast ship" speed="8.33" length="94.73" width="3.75" shape="281.38,452.73,14.27 243.54,365.89,14.31"/>
  </edge>
  <edge id=":15_1" function="internal">
    <lane id=":15_1_0" index="0" disallow="pedestrian tram rail_urban rail rail_electric rail_fast ship" speed="11.11" length="94.53" width="3.75" shape="284.83,450.92,14.12 243.54,365.89,14.31"/>
  </edge>
  <edge id=":18.17_0" function="internal">
    <lane id=":18.17_0_0" index="0" disallow="pedestrian tram rail_urban rail rail_electric rail_fast ship" speed="16.67" length="0.30" width="3.75" shape="565.97,929.70,9.19 565.68,929.60,9.18"/>
  </edge>
  <edge id=":2_0" function="internal">
    <lane id=":2_0_0" index="0" disallow="pedestrian tram rail_urban rail rail_electric rail_fast ship" speed="20.83" length="75.99" width="3.75" shape="169.33,152.93,20.00 182.08,164.91,20.00 200.08,181.16,20.00 216.82,196.01,20.00 225.79,203.79,20.00"/>
  </edge>
  <edge id=":2_1" function="internal">
    <lane id=":2_1_0" index="0" disallow="pedestrian tram rail_urban rail rail_electric rail_fast ship" speed="22.22" length="76.12" width="3.75" shape="169.33,152.93,20.00 223.03,206.92,20.00"/>
    <lane id=":2_1_1" index="1" disallow="pedestrian tram rail_urban rail rail_electric rail_fast ship" speed="22.22" length="76.12" width="3.75" shape="166.68,155.58,20.00 220.36,209.56,20.00"/>
    <lane id=":2_1_2" index="2" disallow="pedestrian tram rail_urban rail rail_electric rail_fast ship" speed="22.22" length="76.12" width="3.75" shape="164.03,158.23,20.00 217.69,212.19,20.00"/>
  </edge>
  <edge id=":2.1_0" function="internal">
    <lane id=":2.1_0_0" index="0" disallow="pedestrian tram rail_urban rail rail_electric rail_fast ship" speed="22.22" length="0.30" width="3.75" shape="617.62,630.11 617.37,630.28"/>
    <lane id=":2.1_0_1" index="1" disallow="pedestrian tram rail_urban rail rail_electric rail_fast ship" speed="22.22" length="0.30" width="3.75" shape="615.41,627.07 615.17,627.25"/>
    <lane id=":2.1_0_2" index="2" disallow="pedestrian tram rail_urban rail rail_electric rail_fast ship" speed="22.22" length="0.30" width="3.75" shape="613.20,624.04 612.97,624.22"/>
  </edge>
  <edge id=":22.21_0" function="internal">
    <lane id=":22.21_0_0" index="0" disallow="pedestrian tram rail_urban rail rail_electric rail_fast ship" speed="8.33" length="0.29" width="3.75" shape="304.20,532.22,10.17 304.21,531.93,10.17"/>
  </edge>
  <edge id=":26.25_0" function="internal">
    <lane id=":26.25_0_0" index="0" disallow="pedestrian tram rail_urban rail rail_electric rail_fast ship" speed="19.44" length="0.30" width="3.75" shape="644.09,409.43,8.74 644.38,409.46,8.73"/>
  </edge>
  <edge id=":3_0" function="internal">
    <lane id=":3_0_0" index="0" disallow="pedestrian tram rail_urban rail rail_electric rail_fast ship" speed="19.44" length="35.64" width="3.75" shape="962.76,1194.96,20.00 955.90,1186.15,19.97 948.92,1178.48,19.94 942.86,1172.49,19.91 938.76,1168.69,19.89"/>
  </edge>
  <edge id=":3_1" function="internal">
    <lane id=":3_1_0" index="0" disallow="pedestrian tram rail_urban rail rail_electric rail_fast ship" speed="22.22" length="35.79" width="3.75" shape="962.76,1194.96,20.00 942.20,1165.67,20.00"/>
    <lane id=":3_1_1" index="1" disallow="pedestrian tram rail_urban rail rail_electric rail_fast ship" speed="22.22" length="35.79" width="3.75" shape="965.83,1192.80,20.00 945.27,1163.51,20.00"/>
    <lane id=":3_1_2" index="2" disallow="pedestrian tram rail_urban rail rail_electric rail_fast ship" speed="22.22" length="35.79" width="3.75" shape="968.90,1190.65,20.00 948.34,1161.36,20.00"/>
  </edge>
  <edge id=":30.29_0" function="internal">
    <lane id=":30.29_0_0" index="0" disallow="pedestrian tram rail_urban rail rail_electric rail_fast ship" speed="16.67" length="0.30" width="3.75" shape="810.79,676.11,6.44 810.83,676.41,6.45"/>
  </edge>
  <edge id=":33.32_0" function="internal">
    <lane id=":33.32_0_0" index="0" disallow="pedestrian tram rail_urban rail rail_electric rail_fast ship" speed="16.67" length="0.30" width="3.75" shape="411.85,650.73,9.38 411.87,650.44,9.38"/>
  </edge>
  <edge id=":35.34_0" function="internal">
    <lane id=":35.34_0_0" index="0" disallow="pedestrian tram rail_urban rail rail_electric rail_fast ship" speed="16.67" length="0.30" width="3.75" shape="588.26,434.68,9.00 588.55,434.73,9.00"/>
  </edge>
  <edge id=":37.36_0" function="internal">
    <lane id=":37.36_0_0" index="0" disallow="pedestrian tram rail_urban rail rail_electric rail_fast ship" speed="22.22" length="0.30" width="3.75" shape="663.75,643.85,9.76 663.76,644.14,9.75"/>
  </edge>
  <edge id=":39.38_0" function="internal">
    <lane id=":39.38_0_0" index="0" disallow="pedestrian tram rail_urban rail rail_electric rail_fast ship" speed="13.89" length="0.30" width="3.75" shape="629.06,880.81,9.05 628.79,880.68,9.05"/>
  </edge>
  <edge id=":4_0" function="internal">
    <lane id=":4_0_0" index="0" disallow="pedestrian tram rail_urban rail rail_electric rail_fast ship" speed="19.44" length="47.45" width="3.75" shape="213.72,892.50,0.18 206.84,895.27,0.15 195.35,900.36,0.10 182.33,906.59,0.05 170.87,912.78"/>
  </edge>
  <edge id=":4_1" function="internal">
    <lane id=":4_1_0" index="0" disallow="pedestrian tram rail_urban rail rail_electric rail_fast ship" speed="22.22" length="46.90" width="3.75" shape="211.09,888.66 170.87,912.78"/>
    <lane id=":4_1_1" index="1" disallow="pedestrian tram rail_urban rail rail_electric rail_fast ship" speed="22.22" length="46.90" width="3.75" shape="209.16,885.45 168.94,909.57"/>
    <lane id=":4_1_2" index="2" disallow="pedestrian tram rail_urban rail rail_electric rail_fast ship" speed="22.22" length="46.90" width="3.75" shape="207.23,882.23 167.01,906.35"/>
  </edge>
  <edge id=":5_0" function="internal">
    <lane id=":5_0_0" index="0" disallow="pedestrian tram rail_urban rail rail_electric rail_fast ship" speed="16.67" length="3.00" width="3.75" shape="667.29,981.12,12.11 664.70,979.62,12.03"/>
  </edge>
  <edge id=":5_1" function="internal">
    <lane id=":5_1_0" index="0" disallow="pedestrian tram rail_urban rail rail_electric rail_fast ship" speed="16.67" length="3.00" width="3.75" shape="667.29,981.12,12.11 664.70,979.61,12.07"/>
  </edge>
  <edge id=":6_0" function="internal">
    <lane id=":6_0_0" index="0" disallow="pedestrian tram rail_urban rail rail_electric rail_fast ship" speed="15.28" length="44.88" width="3.75" shape="119.63,141.81,19.83 115.47,136.15,19.86 108.31,126.91,19.90 99.70,116.45,19.95 91.17,107.15,20.00"/>
  </edge>
  <edge id=":6_1" function="internal">
    <lane id=":6_1_0" index="0" disallow="pedestrian tram rail_urban rail rail_electric rail_fast ship" speed="22.22" length="44.37" width="3.75" shape="122.63,138.44,20.00 91.17,107.15,20.00"/>
    <lane id=":6_1_1" index="1" disallow="pedestrian tram rail_urban rail rail_electric rail_fast ship" speed="22.22" length="44.37" width="3.75" shape="125.28,135.78,20.00 93.81,104.49,20.00"/>
    <lane id=":6_1_2" index="2" disallow="pedestrian tram rail_urban rail rail_electric rail_fast ship" speed="22.22" length="44.37" width="3.75" shape="127.92,133.12,20.00 96.45,101.83,20.00"/>
  </edge>
  <edge id=":6.5_0" function="internal">
    <lane id=":6.5_0_0" index="0" disallow="pedestrian tram rail_urban rail rail_electric rail_fast ship" speed="22.22" length="0.30" width="3.75" shape="604.00,611.88 604.23,611.71"/>
    <lane id=":6.5_0_1" index="1" disallow="pedestrian tram rail_urban rail rail_electric rail_fast ship" speed="22.22" length="0.30" width="3.75" shape="606.20,614.92 606.44,614.74"/>
    <lane id=":6.5_0_2" index="2" disallow="pedestrian tram rail_urban rail rail_electric rail_fast ship" speed="22.22" length="0.30" width="3.75" shape="608.40,617.95 608.65,617.77"/>
  </edge>
  <edge id=":7_0" function="internal">
    <lane id=":7_0_0" index="0" disallow="pedestrian tram rail_urban rail rail_electric rail_fast ship" speed="8.33" length="2.99" width="3.75" shape="258.54,733.75,5.98 259.76,731.02,6.06"/>
  </edge>
  <edge id=":7_1" function="internal">
    <lane id=":7_1_0" index="0" disallow="pedestrian tram rail_urban rail rail_electric rail_fast ship" speed="12.50" length="3.00" width="3.75" shape="258.54,733.75,5.98 259.77,731.01,6.02"/>
  </edge>
  <edge id=":8_0" function="internal">
    <lane id=":8_0_0" index="0" disallow="pedestrian tram rail_urban rail rail_electric rail_fast ship" speed="20.83" length="80.39" width="3.75" shape="964.20,302.94,0.00 974.11,295.23,0.00 992.80,280.34,0.00 1012.81,264.13,0.00 1026.72,252.41"/>
  </edge>
  <edge id=":8_1" function="internal">
    <lane id=":8_1_0" index="0" disallow="pedestrian tram rail_urban rail rail_electric rail_fast ship" speed="22.22" length="80.10" width="3.75" shape="967.14,305.95 1026.72,252.41"/>
    <lane id=":8_1_1" index="1" disallow="pedestrian tram rail_urban rail rail_electric rail_fast ship" speed="22.22" length="80.10" width="3.75" shape="969.64,308.74 1029.23,255.20"/>
    <lane id=":8_1_2" index="2" disallow="pedestrian tram rail_urban rail rail_electric rail_fast ship" speed="22.22" length="80.10" width="3.75" shape="972.15,311.53 1031.73,257.99"/>
  </edge>
  <edge id=":9_0" function="internal">
    <lane id=":9_0_0" index="0" disallow="pedestrian tram rail_urban rail rail_electric rail_fast ship" speed="19.44" length="3.00" width="3.75" shape="477.52,357.78,12.70 480.25,359.00,12.63"/>
  </edge>
  <edge id=":9_1" function="internal">
    <lane id=":9_1_0" index="0" disallow="pedestrian tram rail_urban rail rail_electric rail_fast ship" speed="20.83" length="3.00" width="3.75" shape="477.52,357.78,12.70 480.25,359.01,12.67"/>
  </edge>
  <edge id=":9.10_0" function="internal">
    <lane id=":9.10_0_0" index="0" disallow="pedestrian tram rail_urban rail rail_electric rail_fast ship" speed="22.22" length="0.30" width="3.75" shape="476.12,480.43,20.00 476.31,480.67,20.00"/>
    <lane id=":9.10_0_1" index="1" disallow="pedestrian tram rail_urban rail rail_electric rail_fast ship" speed="22.22" length="0.30" width="3.75" shape="473.21,482.79,20.00 473.39,483.02,20.00"/>
    <lane id=":9.10_0_2" index="2" disallow="pedestrian tram rail_urban rail rail_electric rail_fast ship" speed="22.22" length="0.30" width="3.75" shape="470.29,485.15,20.00 470.48,485.38,20.00"/>
  </edge>
  <edge id="-0" from="0.begin" to="0" priority="1" type="driving" shape="1102.73,202.87 1101.95,203.54 1101.15,204.23 1100.35,204.92 1099.53,205.63 1098.69,206.35 1097.85,207.08 1096.99,207.82 1096.12,208.57 1095.24,209.34 1094.35,210.11 1093.45,210.90 1092.53,211.70 1091.61,212.51 1090.67,213.33 1089.72,214.16 1088.76,215.00 1087.79,215.85 1086.80,216.72 1085.81,217.59 1084.80,218.48 1083.79,219.37 1082.76,220.28 1081.72,221.20 1080.67,222.13 1079.61,223.06 1078.54,224.01 1077.46,224.97 1076.36,225.94 1075.26,226.92 1074.15,227.91 1073.02,228.91 1071.89,229.91 1070.74,230.93 1069.59,231.96 1068.42,233.00 1067.25,234.05 1066.06,235.10 1064.87,236.17 1063.66,237.24 1062.45,238.33 1061.22,239.42 1059.99,240.53 1058.74,241.64 1057.49,242.76 1056.22,243.89 1054.95,245.03 1053.67,246.18 1052.38,247.33 1051.08,248.50 1049.77,249.67 1048.45,250.86 1047.12,252.05 1045.78,253.25 1044.43,254.45 1043.08,255.67 1041.71,256.89 1040.34,258.13 1038.96,259.37 1037.57,260.62 1036.17,261.87 1034.76,263.14 1033.35,264.41 1031.92,265.69 1030.49,266.97 1029.05,268.27 1027.60,269.57 1026.14,270.88 1024.68,272.20 1023.21,273.52 1021.72,274.85 1020.24,276.19 1018.74,277.54 1017.23,278.89 1015.72,280.25 1014.20,281.62 1012.67,282.99 1011.14,284.37 1009.60,285.76 1008.05,287.15 1006.49,288.55 1004.92,289.96 1003.35,291.37 1001.77,292.79 1000.19,294.22 998.60,295.65 997.00,297.08 995.39,298.53 993.78,299.98 992.16,301.43 990.53,302.90 988.90,304.36 987.26,305.84 985.61,307.31 983.96,308.80 982.30,310.29 980.63,311.78 978.96,313.28 977.28,314.79 975.60,316.30 973.91,317.81 972.21,319.34 970.51,320.86 968.81,322.39 967.09,323.93 965.37,325.47 963.65,327.01 961.92,328.56 960.18,330.12 958.44,331.68 956.69,333.24 954.94,334.81 953.19,336.38 951.42,337.96 949.66,339.54 947.88,341.12 946.10,342.71 944.32,344.30 942.53,345.90 940.74,347.50 938.95,349.11 937.14,350.71 935.34,352.32 933.53,353.94 931.71,355.56 929.89,357.18 928.07,358.81 926.24,360.43 924.41,362.07 922.57,363.70 920.73,365.34 918.88,366.98 917.03,368.62 915.18,370.27 913.32,371.92 911.46,373.57 909.60,375.23 907.73,376.88 905.86,378.54 903.98,380.20 902.10,381.87 900.22,383.54 898.34,385.21 896.45,386.88 894.56,388.55 892.66,390.23 890.76,391.90 888.86,393.58 886.96,395.26 885.05,396.95 883.14,398.63 881.23,400.32 879.31,402.00 877.39,403.69 875.47,405.38 873.55,407.08 871.62,408.77 869.69,410.46 867.76,412.16 865.83,413.86">
    <lane id="-0_0" index="0" disallow="pedestrian tram rail_urban rail rail_electric rail_fast ship" speed="22.22" length="313.15" width="3.75" shape="1108.83,210.00 1108.05,210.66 1107.26,211.34 1106.46,212.03 1105.65,212.73 1104.82,213.44 1103.98,214.17 1103.13,214.90 1102.27,215.65 1101.40,216.41 1100.51,217.18 1099.61,217.96 1098.70,218.76 1097.78,219.56 1096.84,220.38 1095.90,221.21 1094.94,222.05 1093.97,222.90 1092.99,223.76 1092.00,224.63 1091.00,225.51 1089.99,226.41 1088.96,227.31 1087.93,228.23 1086.88,229.15 1085.82,230.09 1084.75,231.03 1083.67,231.99 1082.58,232.95 1081.48,233.93 1080.37,234.92 1079.25,235.91 1078.12,236.92 1076.97,237.94 1075.82,238.96 1074.66,240.00 1073.48,241.04 1072.30,242.10 1071.11,243.16 1069.90,244.24 1068.69,245.32 1067.47,246.41 1066.23,247.52 1064.99,248.63 1063.74,249.75 1062.48,250.88 1061.20,252.02 1059.92,253.16 1058.63,254.32 1057.33,255.48 1056.02,256.66 1054.70,257.84 1053.38,259.03 1052.04,260.23 1050.69,261.43 1049.34,262.65 1047.98,263.87 1046.60,265.10 1045.22,266.34 1043.83,267.59 1042.44,268.85 1041.03,270.11 1039.61,271.38 1038.19,272.66 1036.76,273.95 1035.32,275.24 1033.87,276.54 1032.41,277.85 1030.95,279.17 1029.47,280.49 1027.99,281.83 1026.50,283.16 1025.01,284.51 1023.50,285.86 1021.99,287.22 1020.47,288.59 1018.94,289.96 1017.41,291.34 1015.86,292.73 1014.31,294.12 1012.76,295.52 1011.19,296.93 1009.62,298.34 1008.04,299.76 1006.46,301.19 1004.86,302.62 1003.26,304.06 1001.66,305.50 1000.04,306.95 998.42,308.41 996.80,309.87 995.16,311.34 993.52,312.81 991.87,314.29 990.22,315.77 988.56,317.26 986.90,318.76 985.22,320.26 983.55,321.77 981.86,323.28 980.17,324.79 978.47,326.32 976.77,327.84 975.06,329.37 973.35,330.91 971.63,332.45 969.90,334.00 968.17,335.55 966.44,337.10 964.69,338.66 962.95,340.23 961.19,341.80 959.44,343.37 957.67,344.95 955.90,346.53 954.13,348.11 952.35,349.70 950.57,351.30 948.78,352.89 946.99,354.49 945.19,356.10 943.39,357.71 941.58,359.32 939.77,360.94 937.95,362.56 936.13,364.18 934.30,365.81 932.47,367.44 930.64,369.07 928.80,370.70 926.96,372.34 925.11,373.98 923.26,375.63 921.41,377.28 919.55,378.93 917.69,380.58 915.82,382.24 913.95,383.90 912.08,385.56 910.20,387.22 908.32,388.89 906.44,390.56 904.55,392.23 902.66,393.90 900.77,395.57 898.87,397.25 896.97,398.93 895.07,400.61 893.16,402.29 891.25,403.98 889.34,405.66 887.42,407.35 885.51,409.04 883.59,410.73 881.67,412.42 879.74,414.12 877.81,415.81 875.88,417.51 875.04,418.25" type="driving"/>
    <lane id="-0_1" index="1" disallow="pedestrian tram rail_urban rail rail_electric rail_fast ship" speed="22.22" length="313.15" width="3.75" shape="1106.39,207.15 1105.61,207.82 1104.82,208.49 1104.01,209.19 1103.20,209.89 1102.37,210.60 1101.53,211.33 1100.68,212.07 1099.81,212.82 1098.93,213.58 1098.05,214.35 1097.15,215.14 1096.23,215.93 1095.31,216.74 1094.37,217.56 1093.43,218.39 1092.47,219.23 1091.50,220.08 1090.52,220.94 1089.52,221.82 1088.52,222.70 1087.51,223.59 1086.48,224.50 1085.44,225.41 1084.40,226.34 1083.34,227.28 1082.27,228.22 1081.19,229.18 1080.09,230.15 1078.99,231.13 1077.88,232.11 1076.76,233.11 1075.62,234.12 1074.48,235.14 1073.33,236.16 1072.16,237.20 1070.99,238.25 1069.81,239.30 1068.61,240.37 1067.41,241.44 1066.19,242.52 1064.97,243.62 1063.73,244.72 1062.49,245.83 1061.24,246.95 1059.98,248.08 1058.70,249.22 1057.42,250.37 1056.13,251.52 1054.83,252.69 1053.52,253.86 1052.20,255.04 1050.87,256.24 1049.54,257.43 1048.19,258.64 1046.84,259.86 1045.47,261.08 1044.10,262.31 1042.72,263.55 1041.33,264.80 1039.93,266.06 1038.52,267.32 1037.11,268.59 1035.68,269.87 1034.25,271.16 1032.81,272.45 1031.36,273.76 1029.90,275.06 1028.44,276.38 1026.97,277.71 1025.48,279.04 1024.00,280.38 1022.50,281.72 1020.99,283.07 1019.48,284.43 1017.96,285.80 1016.43,287.17 1014.90,288.55 1013.36,289.94 1011.81,291.33 1010.25,292.73 1008.69,294.14 1007.11,295.55 1005.54,296.97 1003.95,298.40 1002.36,299.83 1000.76,301.27 999.15,302.71 997.54,304.16 995.92,305.62 994.29,307.08 992.66,308.55 991.02,310.02 989.37,311.50 987.72,312.98 986.06,314.47 984.39,315.97 982.72,317.47 981.04,318.97 979.36,320.49 977.67,322.00 975.97,323.52 974.27,325.05 972.56,326.58 970.85,328.12 969.13,329.66 967.40,331.20 965.67,332.75 963.93,334.31 962.19,335.87 960.45,337.43 958.69,339.00 956.94,340.57 955.17,342.15 953.40,343.73 951.63,345.32 949.85,346.91 948.07,348.50 946.28,350.10 944.49,351.70 942.69,353.30 940.89,354.91 939.08,356.52 937.27,358.14 935.45,359.76 933.63,361.38 931.81,363.01 929.98,364.63 928.15,366.27 926.31,367.90 924.47,369.54 922.62,371.18 920.77,372.83 918.92,374.47 917.06,376.12 915.20,377.78 913.33,379.43 911.46,381.09 909.59,382.75 907.71,384.41 905.83,386.08 903.95,387.75 902.06,389.42 900.17,391.09 898.28,392.76 896.39,394.44 894.49,396.12 892.58,397.80 890.68,399.48 888.77,401.16 886.86,402.85 884.95,404.54 883.03,406.23 881.11,407.92 879.19,409.61 877.26,411.30 875.34,412.99 873.41,414.69 872.56,415.43" type="driving"/>
    <lane id="-0_2" index="2" disallow="pedestrian tram rail_urban rail rail_electric rail_fast ship" speed="22.22" length="313.15" width="3.75" shape="1103.95,204.30 1103.17,204.97 1102.37,205.65 1101.57,206.34 1100.75,207.05 1099.92,207.77 1099.08,208.49 1098.22,209.23 1097.35,209.99 1096.47,210.75 1095.58,211.52 1094.68,212.31 1093.77,213.11 1092.84,213.92 1091.90,214.74 1090.96,215.57 1090.00,216.41 1089.02,217.26 1088.04,218.13 1087.05,219.00 1086.04,219.89 1085.03,220.78 1084.00,221.69 1082.96,222.60 1081.91,223.53 1080.85,224.47 1079.78,225.42 1078.70,226.37 1077.61,227.34 1076.50,228.32 1075.39,229.31 1074.27,230.31 1073.13,231.32 1071.99,232.33 1070.83,233.36 1069.67,234.40 1068.49,235.45 1067.31,236.50 1066.11,237.57 1064.91,238.64 1063.69,239.73 1062.47,240.82 1061.24,241.92 1059.99,243.04 1058.74,244.16 1057.47,245.29 1056.20,246.43 1054.92,247.57 1053.63,248.73 1052.33,249.90 1051.02,251.07 1049.70,252.25 1048.37,253.44 1047.03,254.64 1045.69,255.85 1044.33,257.07 1042.97,258.29 1041.59,259.52 1040.21,260.76 1038.82,262.01 1037.42,263.27 1036.02,264.53 1034.60,265.80 1033.18,267.08 1031.74,268.37 1030.30,269.66 1028.85,270.97 1027.40,272.28 1025.93,273.59 1024.46,274.92 1022.98,276.25 1021.49,277.59 1019.99,278.93 1018.49,280.29 1016.97,281.65 1015.45,283.01 1013.93,284.39 1012.39,285.77 1010.85,287.15 1009.30,288.55 1007.74,289.95 1006.18,291.35 1004.61,292.77 1003.03,294.18 1001.44,295.61 999.85,297.04 998.25,298.48 996.64,299.92 995.03,301.37 993.41,302.83 991.78,304.29 990.15,305.76 988.51,307.23 986.86,308.71 985.21,310.19 983.55,311.68 981.89,313.18 980.21,314.68 978.54,316.18 976.85,317.69 975.16,319.21 973.47,320.73 971.76,322.26 970.06,323.79 968.34,325.32 966.62,326.87 964.90,328.41 963.17,329.96 961.43,331.52 959.69,333.07 957.94,334.64 956.19,336.21 954.44,337.78 952.67,339.36 950.91,340.94 949.13,342.52 947.35,344.11 945.57,345.70 943.78,347.30 941.99,348.90 940.19,350.50 938.39,352.11 936.59,353.72 934.77,355.34 932.96,356.96 931.14,358.58 929.31,360.21 927.49,361.83 925.65,363.47 923.81,365.10 921.97,366.74 920.13,368.38 918.28,370.02 916.43,371.67 914.57,373.32 912.71,374.97 910.84,376.63 908.97,378.29 907.10,379.95 905.23,381.61 903.35,383.27 901.46,384.94 899.58,386.61 897.69,388.28 895.80,389.95 893.90,391.63 892.00,393.31 890.10,394.99 888.20,396.67 886.29,398.35 884.38,400.04 882.47,401.72 880.55,403.41 878.63,405.10 876.71,406.79 874.79,408.48 872.86,410.18 870.93,411.87 870.09,412.62" type="driving"/>
  </edge>