<?xml version='1.0' encoding='UTF-8'?>
<!-- generated on 2022-09-05 19:10:13 by Eclipse SUMO netconvert Version 1.13.0
<configuration xmlns:xsi="http://www.w3.org/2001/XMLSchema-instance" xsi:noNamespaceSchemaLocation="http://sumo.dlr.de/xsd/netconvertConfiguration.xsd">

    <input>
        <opendrive-files value="map\classification\12\31211162\31211162.xodr"/>
    </input>

    <output>
        <output-file value="C:\Users\LinGe\AppData\Local\Temp\tmpe92n3o3l\31211162.net.xml"/>
    </output>

    <processing>
        <geometry.max-grade.fix value="false"/>
    </processing>

    <tls_building>
        <tls.left-green.time value="0"/>
    </tls_building>

    <junctions>
        <rectangular-lane-cut value="true"/>
    </junctions>

    <report>
        <aggregate-warnings value="5"/>
    </report>

</configuration>
-->
<net xmlns:xsi="http://www.w3.org/2001/XMLSchema-instance" version="1.9" junctionCornerDetail="5" rectangularLaneCut="true" limitTurnSpeed="5.50" xsi:noNamespaceSchemaLocation="http://sumo.dlr.de/xsd/net_file.xsd">
  <location netOffset="99.33,101.26" convBoundary="0.00,0.00,1200.51,1302.51" origBoundary="-99.33,-101.26,1101.18,1201.26" projParameter="!"/>
  <type id="bidirectional" priority="1" speed="1.39" disallow="pedestrian tram rail_urban rail rail_electric rail_fast ship" width="3.65"/>
  <type id="border" priority="0" speed="1.39" disallow="all" discard="1" width="0.10"/>
  <type id="driving" priority="1" speed="13.89" disallow="pedestrian tram rail_urban rail rail_electric rail_fast ship" width="3.65"/>
  <type id="entry" priority="1" speed="22.22" disallow="pedestrian tram rail_urban rail rail_electric rail_fast ship" width="3.65"/>
  <type id="exit" priority="1" speed="22.22" disallow="pedestrian tram rail_urban rail rail_electric rail_fast ship" width="3.65"/>
  <type id="median" priority="0" speed="1.39" disallow="all" discard="1" width="0.10"/>
  <type id="mwyEntry" priority="1" speed="22.22" allow="private emergency authority army vip passenger hov taxi bus coach delivery truck trailer motorcycle evehicle custom1 custom2" width="3.65"/>
  <type id="mwyExit" priority="1" speed="22.22" allow="private emergency authority army vip passenger hov taxi bus coach delivery truck trailer motorcycle evehicle custom1 custom2" width="3.65"/>
  <type id="none" priority="0" speed="1.39" disallow="all" discard="1" width="1.00"/>
  <type id="offRamp" priority="1" speed="22.22" allow="private emergency authority army vip passenger hov taxi bus coach delivery truck trailer motorcycle evehicle custom1 custom2" width="3.65"/>
  <type id="onRamp" priority="1" speed="22.22" allow="private emergency authority army vip passenger hov taxi bus coach delivery truck trailer motorcycle evehicle custom1 custom2" width="3.65"/>
  <type id="parking" priority="1" speed="1.39" disallow="pedestrian tram rail_urban rail rail_electric rail_fast ship" width="2.50"/>
  <type id="rail" priority="3" speed="33.33" allow="rail_urban rail rail_electric rail_fast" width="3.65"/>
  <type id="restricted" priority="0" speed="13.89" disallow="all" width="3.65"/>
  <type id="roadWorks" priority="0" speed="1.39" allow="authority" width="3.65"/>
  <type id="shoulder" priority="0" speed="1.39" disallow="all" discard="1" width="1.00"/>
  <type id="special1" priority="1" speed="22.22" allow="custom1" discard="1" width="3.65"/>
  <type id="special2" priority="1" speed="22.22" allow="custom2" discard="1" width="3.65"/>
  <type id="special3" priority="1" speed="22.22" allow="custom1 custom2" discard="1" width="3.65"/>
  <type id="stop" priority="1" speed="13.89" disallow="pedestrian tram rail_urban rail rail_electric rail_fast ship" width="3.65"/>
  <type id="tram" priority="2" speed="13.89" allow="tram" width="3.65"/>
  <edge id=":0_0" function="internal">
    <lane id=":0_0_0" index="0" disallow="pedestrian tram rail_urban rail rail_electric rail_fast ship" speed="16.67" length="80.98" width="3.75" shape="1055.38,301.30 1040.02,311.20 1018.47,325.69 998.59,339.28 988.21,346.53"/>
  </edge>
  <edge id=":0_1" function="internal">
    <lane id=":0_1_0" index="0" disallow="pedestrian tram rail_urban rail rail_electric rail_fast ship" speed="22.22" length="81.07" width="3.75" shape="1055.38,301.30 985.92,343.08"/>
    <lane id=":0_1_1" index="1" disallow="pedestrian tram rail_urban rail rail_electric rail_fast ship" speed="22.22" length="81.07" width="3.75" shape="1053.45,298.09 983.98,339.87"/>
    <lane id=":0_1_2" index="2" disallow="pedestrian tram rail_urban rail rail_electric rail_fast ship" speed="22.22" length="81.07" width="3.75" shape="1051.52,294.87 982.05,336.66"/>
  </edge>
  <edge id=":1_0" function="internal">
    <lane id=":1_0_0" index="0" disallow="pedestrian tram rail_urban rail rail_electric rail_fast ship" speed="15.97" length="25.71" width="3.75" shape="165.99,926.33 172.03,920.12,0.01 176.28,914.51,0.02 179.19,909.68,0.03 181.22,905.81,0.04"/>
  </edge>
  <edge id=":1_1" function="internal">
    <lane id=":1_1_0" index="0" disallow="pedestrian tram rail_urban rail rail_electric rail_fast ship" speed="22.22" length="25.94" width="3.75" shape="165.99,926.33 185.20,908.89"/>
    <lane id=":1_1_1" index="1" disallow="pedestrian tram rail_urban rail rail_electric rail_fast ship" speed="22.22" length="25.94" width="3.75" shape="168.51,929.11 187.72,911.67"/>
    <lane id=":1_1_2" index="2" disallow="pedestrian tram rail_urban rail rail_electric rail_fast ship" speed="22.22" length="25.94" width="3.75" shape="171.03,931.88 190.24,914.45"/>
  </edge>
  <edge id=":14.13_0" function="internal">
    <lane id=":14.13_0_0" index="0" disallow="pedestrian tram rail_urban rail rail_electric rail_fast ship" speed="22.22" length="0.30" width="3.75" shape="492.00,592.51,20.00 491.81,592.28,20.00"/>
    <lane id=":14.13_0_1" index="1" disallow="pedestrian tram rail_urban rail rail_electric rail_fast ship" speed="22.22" length="0.30" width="3.75" shape="494.92,590.16,20.00 494.73,589.92,20.00"/>
    <lane id=":14.13_0_2" index="2" disallow="pedestrian tram rail_urban rail rail_electric rail_fast ship" speed="22.22" length="0.30" width="3.75" shape="497.83,587.80,20.00 497.65,587.57,20.00"/>
  </edge>
  <edge id=":17.16_0" function="internal">
    <lane id=":17.16_0_0" index="0" disallow="pedestrian tram rail_urban rail rail_electric rail_fast ship" speed="11.11" length="0.30" width="3.75" shape="803.59,580.13,7.61 803.58,580.42,7.61"/>
  </edge>
  <edge id=":19.18_0" function="internal">
    <lane id=":19.18_0_0" index="0" disallow="pedestrian tram rail_urban rail rail_electric rail_fast ship" speed="8.33" length="0.28" width="3.75" shape="669.96,615.74,9.14 670.08,615.50,9.10"/>
  </edge>
  <edge id=":2_0" function="internal">
    <lane id=":2_0_0" index="0" disallow="pedestrian tram rail_urban rail rail_electric rail_fast ship" speed="15.28" length="27.75" width="3.75" shape="573.18,653.23,20.00 579.73,660.00,20.00 585.67,664.92,20.00 590.81,668.20,20.00 594.92,670.08,20.00"/>
  </edge>
  <edge id=":2_1" function="internal">
    <lane id=":2_1_0" index="0" disallow="pedestrian tram rail_urban rail rail_electric rail_fast ship" speed="22.22" length="28.31" width="3.75" shape="573.18,653.23,20.00 591.81,674.53,20.00"/>
    <lane id=":2_1_1" index="1" disallow="pedestrian tram rail_urban rail rail_electric rail_fast ship" speed="22.22" length="28.31" width="3.75" shape="570.35,655.69,20.00 588.99,677.00,20.00"/>
    <lane id=":2_1_2" index="2" disallow="pedestrian tram rail_urban rail rail_electric rail_fast ship" speed="22.22" length="28.31" width="3.75" shape="567.53,658.15,20.00 586.17,679.48,20.00"/>
  </edge>
  <edge id=":21.20_0" function="internal">
    <lane id=":21.20_0_0" index="0" disallow="pedestrian tram rail_urban rail rail_electric rail_fast ship" speed="9.72" length="0.30" width="3.75" shape="287.40,490.22,10.58 287.39,489.92,10.60"/>
  </edge>
  <edge id=":23.22_0" function="internal">
    <lane id=":23.22_0_0" index="0" disallow="pedestrian tram rail_urban rail rail_electric rail_fast ship" speed="8.33" length="0.29" width="3.75" shape="3.06,568.92,9.34 3.01,568.63,9.33"/>
  </edge>
  <edge id=":3_0" function="internal">
    <lane id=":3_0_0" index="0" disallow="pedestrian tram rail_urban rail rail_electric rail_fast ship" speed="15.28" length="28.98" width="3.75" shape="1077.05,1239.60,20.00 1069.95,1232.74,20.00 1063.56,1227.78,20.00 1058.22,1224.29,19.99 1054.27,1221.88,19.99"/>
  </edge>
  <edge id=":3_1" function="internal">
    <lane id=":3_1_0" index="0" disallow="pedestrian tram rail_urban rail rail_electric rail_fast ship" speed="22.22" length="29.08" width="3.75" shape="1077.05,1239.60,20.00 1057.29,1218.26,20.00"/>
    <lane id=":3_1_1" index="1" disallow="pedestrian tram rail_urban rail rail_electric rail_fast ship" speed="22.22" length="29.08" width="3.75" shape="1079.80,1237.05,20.00 1060.04,1215.72,20.00"/>
    <lane id=":3_1_2" index="2" disallow="pedestrian tram rail_urban rail rail_electric rail_fast ship" speed="22.22" length="29.08" width="3.75" shape="1082.56,1234.50,20.00 1062.80,1213.17,20.00"/>
  </edge>
  <edge id=":3.2_0" function="internal">
    <lane id=":3.2_0_0" index="0" disallow="pedestrian tram rail_urban rail rail_electric rail_fast ship" speed="22.22" length="0.30" width="3.75" shape="583.52,599.57 583.28,599.74"/>
    <lane id=":3.2_0_1" index="1" disallow="pedestrian tram rail_urban rail rail_electric rail_fast ship" speed="22.22" length="0.30" width="3.75" shape="581.31,596.54 581.07,596.71"/>
    <lane id=":3.2_0_2" index="2" disallow="pedestrian tram rail_urban rail rail_electric rail_fast ship" speed="22.22" length="0.30" width="3.75" shape="579.11,593.50 578.86,593.68"/>
  </edge>
  <edge id=":4_0" function="internal">
    <lane id=":4_0_0" index="0" disallow="pedestrian tram rail_urban rail rail_electric rail_fast ship" speed="16.67" length="76.18" width="3.75" shape="979.27,1094.29,20.00 986.67,1103.61,20.00 1000.83,1121.02,20.00 1016.35,1139.74,20.00 1027.83,1152.98,20.00"/>
  </edge>
  <edge id=":4_1" function="internal">
    <lane id=":4_1_0" index="0" disallow="pedestrian tram rail_urban rail rail_electric rail_fast ship" speed="22.22" length="75.88" width="3.75" shape="976.29,1097.29,20.00 1027.83,1152.98,20.00"/>
    <lane id=":4_1_1" index="1" disallow="pedestrian tram rail_urban rail rail_electric rail_fast ship" speed="22.22" length="75.88" width="3.75" shape="973.54,1099.83,20.00 1025.07,1155.53,20.00"/>
    <lane id=":4_1_2" index="2" disallow="pedestrian tram rail_urban rail rail_electric rail_fast ship" speed="22.22" length="75.88" width="3.75" shape="970.78,1102.38,20.00 1022.32,1158.08,20.00"/>
  </edge>
  <edge id=":5_0" function="internal">
    <lane id=":5_0_0" index="0" disallow="pedestrian tram rail_urban rail rail_electric rail_fast ship" speed="15.28" length="32.83" width="3.75" shape="647.77,561.99 642.75,563.12 635.62,565.64 627.11,569.64 617.95,575.22"/>
  </edge>
  <edge id=":5_1" function="internal">
    <lane id=":5_1_0" index="0" disallow="pedestrian tram rail_urban rail rail_electric rail_fast ship" speed="22.22" length="31.77" width="3.75" shape="644.16,557.35 617.95,575.22"/>
    <lane id=":5_1_1" index="1" disallow="pedestrian tram rail_urban rail rail_electric rail_fast ship" speed="22.22" length="31.77" width="3.75" shape="642.07,554.24 615.82,572.13"/>
    <lane id=":5_1_2" index="2" disallow="pedestrian tram rail_urban rail rail_electric rail_fast ship" speed="22.22" length="31.77" width="3.75" shape="639.97,551.13 613.69,569.05"/>
  </edge>
  <edge id=":6_0" function="internal">
    <lane id=":6_0_0" index="0" disallow="pedestrian tram rail_urban rail rail_electric rail_fast ship" speed="15.97" length="87.86" width="3.75" shape="202.77,186.18,20.00 195.96,174.25,20.00 182.63,151.40,20.00 168.20,127.03,20.00 158.07,110.54,20.00"/>
  </edge>
  <edge id=":6_1" function="internal">
    <lane id=":6_1_0" index="0" disallow="pedestrian tram rail_urban rail rail_electric rail_fast ship" speed="22.22" length="87.59" width="3.75" shape="206.16,183.75,20.00 158.07,110.54,20.00"/>
    <lane id=":6_1_1" index="1" disallow="pedestrian tram rail_urban rail rail_electric rail_fast ship" speed="22.22" length="87.59" width="3.75" shape="209.29,181.69,20.00 161.20,108.48,20.00"/>
    <lane id=":6_1_2" index="2" disallow="pedestrian tram rail_urban rail rail_electric rail_fast ship" speed="22.22" length="87.59" width="3.75" shape="212.42,179.63,20.00 164.34,106.43,20.00"/>
  </edge>
  <edge id=":6.5_0" function="internal">
    <lane id=":6.5_0_0" index="0" disallow="pedestrian tram rail_urban rail rail_electric rail_fast ship" speed="22.22" length="0.30" width="3.75" shape="569.89,581.35 570.14,581.17"/>
    <lane id=":6.5_0_1" index="1" disallow="pedestrian tram rail_urban rail rail_electric rail_fast ship" speed="22.22" length="0.30" width="3.75" shape="572.10,584.38 572.34,584.20"/>
    <lane id=":6.5_0_2" index="2" disallow="pedestrian tram rail_urban rail rail_electric rail_fast ship" speed="22.22" length="0.30" width="3.75" shape="574.31,587.41 574.55,587.24"/>
  </edge>
  <edge id=":7_0" function="internal">
    <lane id=":7_0_0" index="0" disallow="pedestrian tram rail_urban rail rail_electric rail_fast ship" speed="15.28" length="28.73" width="3.75" shape="910.67,355.70,0.01 915.22,354.84,0.01 921.34,353.21,0.00 928.82,350.37,0.00 937.46,345.82"/>
  </edge>
  <edge id=":7_1" function="internal">
    <lane id=":7_1_0" index="0" disallow="pedestrian tram rail_urban rail rail_electric rail_fast ship" speed="22.22" length="27.66" width="3.75" shape="913.81,360.18 937.46,345.82"/>
    <lane id=":7_1_1" index="1" disallow="pedestrian tram rail_urban rail rail_electric rail_fast ship" speed="22.22" length="27.66" width="3.75" shape="915.76,363.39 939.40,349.03"/>
    <lane id=":7_1_2" index="2" disallow="pedestrian tram rail_urban rail rail_electric rail_fast ship" speed="22.22" length="27.66" width="3.75" shape="917.71,366.59 941.35,352.23"/>
  </edge>
  <edge id=":9.8_0" function="internal">
    <lane id=":9.8_0_0" index="0" disallow="pedestrian tram rail_urban rail rail_electric rail_fast ship" speed="22.22" length="0.30" width="3.75" shape="509.51,577.99,20.00 509.70,578.22,20.00"/>
    <lane id=":9.8_0_1" index="1" disallow="pedestrian tram rail_urban rail rail_electric rail_fast ship" speed="22.22" length="0.30" width="3.75" shape="506.59,580.34,20.00 506.78,580.57,20.00"/>
    <lane id=":9.8_0_2" index="2" disallow="pedestrian tram rail_urban rail rail_electric rail_fast ship" speed="22.22" length="0.30" width="3.75" shape="503.67,582.70,20.00 503.87,582.93,20.00"/>
  </edge>
  <edge id="-0" from="0.begin" to="0" priority="1" type="driving" shape="1200.51,202.87 1199.60,203.44 1198.66,204.02 1197.71,204.62 1196.73,205.22 1195.74,205.84 1194.72,206.47 1193.68,207.12 1192.62,207.77 1191.53,208.44 1190.43,209.11 1189.31,209.80 1188.17,210.50 1187.00,211.22 1185.82,211.94 1184.61,212.68 1183.39,213.43 1182.15,214.18 1180.88,214.95 1179.60,215.73 1178.30,216.53 1176.98,217.33 1175.64,218.14 1174.28,218.97 1172.90,219.80 1171.50,220.65 1170.09,221.51 1168.66,222.38 1167.20,223.25 1165.73,224.14 1164.25,225.04 1162.74,225.95 1161.22,226.87 1159.68,227.80 1158.12,228.74 1156.54,229.69 1154.95,230.65 1153.34,231.62 1151.71,232.60 1150.07,233.59 1148.41,234.59 1146.73,235.60 1145.04,236.62 1143.33,237.65 1141.60,238.68 1139.86,239.73 1138.10,240.78 1136.33,241.85 1134.54,242.92 1132.73,244.01 1130.92,245.10 1129.08,246.20 1127.23,247.31 1125.37,248.43 1123.49,249.56 1121.59,250.69 1119.68,251.84 1117.76,252.99 1115.82,254.15 1113.87,255.32 1111.91,256.50 1109.93,257.68 1107.93,258.88 1105.93,260.08 1103.91,261.29 1101.88,262.51 1099.83,263.73 1097.77,264.97 1095.70,266.21 1093.61,267.46 1091.52,268.72 1089.41,269.98 1087.28,271.25 1085.15,272.53 1083.00,273.82 1080.84,275.11 1078.67,276.41 1076.49,277.72 1074.30,279.03 1072.09,280.35 1069.88,281.68 1067.65,283.02 1065.41,284.36 1063.16,285.71 1060.90,287.06 1058.63,288.42 1056.35,289.79 1054.06,291.17 1051.76,292.55 1049.45,293.93 1047.12,295.33">
    <lane id="-0_0" index="0" disallow="pedestrian tram rail_urban rail rail_electric rail_fast ship" speed="22.22" length="175.19" width="3.75" shape="1205.47,210.83 1204.56,211.40 1203.62,211.98 1202.66,212.58 1201.67,213.19 1200.67,213.81 1199.65,214.45 1198.60,215.09 1197.53,215.75 1196.45,216.42 1195.34,217.10 1194.21,217.79 1193.06,218.50 1191.90,219.21 1190.71,219.94 1189.50,220.68 1188.27,221.43 1187.03,222.19 1185.76,222.96 1184.48,223.74 1183.17,224.54 1181.85,225.34 1180.50,226.16 1179.14,226.98 1177.76,227.82 1176.36,228.67 1174.95,229.53 1173.51,230.40 1172.06,231.28 1170.58,232.17 1169.09,233.07 1167.59,233.98 1166.06,234.90 1164.52,235.83 1162.96,236.77 1161.38,237.72 1159.79,238.68 1158.17,239.65 1156.55,240.63 1154.90,241.62 1153.24,242.62 1151.56,243.63 1149.87,244.65 1148.16,245.68 1146.43,246.72 1144.69,247.77 1142.93,248.82 1141.15,249.89 1139.36,250.96 1137.56,252.05 1135.74,253.14 1133.90,254.24 1132.05,255.35 1130.19,256.47 1128.31,257.60 1126.41,258.73 1124.50,259.88 1122.58,261.03 1120.64,262.19 1118.69,263.36 1116.73,264.54 1114.75,265.73 1112.75,266.92 1110.75,268.12 1108.73,269.33 1106.69,270.55 1104.65,271.78 1102.59,273.01 1100.52,274.25 1098.43,275.50 1096.33,276.76 1094.22,278.02 1092.10,279.29 1089.97,280.57 1087.82,281.86 1085.66,283.15 1083.49,284.45 1081.31,285.76 1079.12,287.07 1076.91,288.40 1074.70,289.72 1072.47,291.06 1070.23,292.40 1067.98,293.75 1065.72,295.10 1063.45,296.46 1061.17,297.83 1058.88,299.21 1056.58,300.59 1055.38,301.30" type="driving"/>
    <lane id="-0_1" index="1" disallow="pedestrian tram rail_urban rail rail_electric rail_fast ship" speed="22.22" length="175.19" width="3.75" shape="1203.49,207.65 1202.57,208.22 1201.64,208.80 1200.68,209.40 1199.70,210.00 1198.70,210.63 1197.67,211.26 1196.63,211.90 1195.57,212.56 1194.48,213.23 1193.38,213.91 1192.25,214.60 1191.11,215.30 1189.94,216.01 1188.75,216.74 1187.55,217.48 1186.32,218.23 1185.08,218.99 1183.81,219.76 1182.53,220.54 1181.22,221.33 1179.90,222.14 1178.56,222.95 1177.20,223.78 1175.82,224.61 1174.42,225.46 1173.00,226.32 1171.57,227.19 1170.11,228.07 1168.64,228.96 1167.15,229.86 1165.65,230.77 1164.12,231.69 1162.58,232.62 1161.02,233.56 1159.44,234.51 1157.85,235.47 1156.24,236.44 1154.61,237.42 1152.97,238.41 1151.31,239.41 1149.63,240.42 1147.93,241.44 1146.22,242.47 1144.50,243.50 1142.76,244.55 1141.00,245.61 1139.22,246.67 1137.43,247.75 1135.63,248.83 1133.81,249.92 1131.97,251.02 1130.12,252.13 1128.26,253.25 1126.38,254.38 1124.48,255.52 1122.58,256.66 1120.65,257.81 1118.72,258.97 1116.76,260.14 1114.80,261.32 1112.82,262.51 1110.83,263.70 1108.82,264.91 1106.80,266.12 1104.77,267.33 1102.72,268.56 1100.66,269.79 1098.59,271.04 1096.50,272.28 1094.41,273.54 1092.30,274.81 1090.17,276.08 1088.04,277.36 1085.89,278.64 1083.74,279.93 1081.56,281.24 1079.38,282.54 1077.19,283.86 1074.98,285.18 1072.77,286.51 1070.54,287.84 1068.30,289.18 1066.05,290.53 1063.79,291.89 1061.52,293.25 1059.24,294.62 1056.95,295.99 1054.65,297.37 1053.45,298.09" type="driving"/>
    <lane id="-0_2" index="2" disallow="pedestrian tram rail_urban rail rail_electric rail_fast ship" speed="22.22" length="175.19" width="3.75" shape="1201.50,204.46 1200.59,205.03 1199.66,205.62 1198.70,206.21 1197.72,206.82 1196.72,207.44 1195.70,208.07 1194.66,208.71 1193.60,209.37 1192.52,210.03 1191.41,210.71 1190.29,211.40 1189.15,212.10 1187.98,212.82 1186.80,213.54 1185.59,214.28 1184.37,215.03 1183.12,215.78 1181.86,216.55 1180.58,217.34 1179.27,218.13 1177.95,218.93 1176.61,219.75 1175.25,220.57 1173.87,221.41 1172.48,222.25 1171.06,223.11 1169.63,223.98 1168.17,224.86 1166.70,225.75 1165.22,226.65 1163.71,227.56 1162.19,228.48 1160.64,229.41 1159.09,230.35 1157.51,231.30 1155.92,232.26 1154.31,233.23 1152.68,234.21 1151.03,235.20 1149.37,236.20 1147.70,237.21 1146.00,238.22 1144.29,239.25 1142.57,240.29 1140.82,241.34 1139.07,242.39 1137.29,243.46 1135.50,244.53 1133.70,245.61 1131.88,246.71 1130.04,247.81 1128.20,248.92 1126.33,250.04 1124.45,251.16 1122.56,252.30 1120.65,253.44 1118.72,254.60 1116.79,255.76 1114.84,256.93 1112.87,258.11 1110.89,259.29 1108.90,260.49 1106.89,261.69 1104.87,262.90 1102.84,264.12 1100.79,265.34 1098.73,266.58 1096.66,267.82 1094.58,269.07 1092.48,270.32 1090.37,271.59 1088.25,272.86 1086.11,274.14 1083.97,275.42 1081.81,276.72 1079.64,278.02 1077.46,279.33 1075.26,280.64 1073.06,281.96 1070.84,283.29 1068.61,284.63 1066.38,285.97 1064.13,287.32 1061.87,288.67 1059.60,290.03 1057.31,291.40 1055.02,292.77 1052.72,294.15 1051.52,294.87" type="driving"/>
  </edge>
  <edge id="-1" from="0" to="5" priority="1" type="driving" shape="1047.12,295.33 1045.55,296.27 1043.97,297.22 1042.39,298.17 1040.81,299.12 1039.22,300.07 1037.62,301.03 1036.02,301.99 1034.42,302.95 1032.81,303.92 1031.20,304.88 1029.59,305.86 1027.97,306.83 1026.34,307.80 1024.72,308.78 1023.08,309.76 1021.45,310.74 1019.81,311.73 1018.17,312.72 1016.52,313.71 1014.87,314.70 1013.22,315.69 1011.56,316.69 1009.90,317.69 1008.24,318.69 1006.57,319.69 1004.90,320.70 1003.22,321.71 1001.54,322.72 999.86,323.73 998.18,324.75 996.49,325.76 994.80,326.78 993.11,327.80 991.41,328.82 989.71,329.85 988.01,330.88 986.30,331.91 984.59,332.94 982.88,333.97 981.16,335.00 979.45,336.04 977.73,337.08 976.00,338.12 974.28,339.16 972.55,340.20 970.82,341.25 969.08,342.30 967.35,343.35 965.61,344.40 963.87,345.45 962.13,346.50 960.38,347.56 958.63,348.62 956.88,349.68 955.13,350.74 953.37,351.80 951.62,352.86 949.86,353.93 948.10,355.00 946.33,356.06 944.57,357.13 942.80,358.21 941.03,359.28 939.26,360.35 937.49,361.43 935.72,362.50 933.94,363.58 932.16,364.66 930.38,365.74 928.60,366.82 926.82,367.91 925.04,368.99 923.25,370.08 921.46,371.16 919.68,372.25 917.89,373.34 916.09,374.43 914.30,375.52 912.51,376.61 910.71,377.71 908.92,378.80 907.12,379.90 905.32,380.99 903.52,382.09 901.72,383.19 899.92,384.29 898.12,385.39 896.32,386.49 894.51,387.59 892.71,388.69 890.91,389.80 889.10,390.90 887.29,392.01 885.49,393.11 883.68,394.22 881.87,395.32 880.06,396.43 878.25,397.54 876.44,398.65 874.63,399.76 872.82,400.87 871.01,401.98 869.20,403.09 867.39,404.20 865.58,405.31 863.77,406.43 861.96,407.54 860.15,408.65 858.34,409.77 856.52,410.88 854.71,412.00 852.90,413.11 851.09,414.23 849.28,415.34 847.47,416.46 845.66,417.57 843.85,418.69 842.04,419.81 840.23,420.92 838.43,422.04 836.62,423.16 834.81,424.28 833.00,425.39 831.20,426.51 829.39,427.63 827.59,428.75 825.78,429.86 823.98,430.98 822.18,432.10 820.38,433.22 818.58,434.33 816.78,435.45 814.98,436.57 813.18,437.68 811.38,438.80 809.59,439.92 807.79,441.03 806.00,442.15 804.21,443.27 802.42,444.38 800.63,445.50 798.84,446.61 797.06,447.73 795.27,448.84 793.49,449.96 791.71,451.07 789.93,452.18 788.15,453.30 786.37,454.41 784.60,455.52 782.82,456.63 781.05,457.74 779.28,458.85 777.51,459.96 775.75,461.07 773.98,462.18 772.22,463.29 770.46,464.39 768.70,465.50 766.95,466.61 765.19,467.71 763.44,468.82 761.69,469.92 759.95,471.02 758.20,472.12 756.46,473.23 754.72,474.33 752.98,475.43 751.25,476.52 749.52,477.62 747.79,478.72 746.06,479.81 744.34,480.91 742.61,482.00 740.90,483.09 739.18,484.19 737.47,485.28 735.76,486.36 734.05,487.45 732.34,488.54 730.64,489.63 728.94,490.71 727.25,491.79 725.56,492.88 723.87,493.96 722.18,495.04 720.50,496.12 718.82,497.19 717.14,498.27 715.47,499.34 713.80,500.42 712.13,501.49 710.47,502.56 708.81,503.63 707.16,504.69 705.50,505.76 703.86,506.82 702.21,507.89 700.57,508.95 698.93,510.01 697.30,511.07 695.67,512.12 694.05,513.18 692.43,514.23 690.81,515.28 689.20,516.33 687.59,517.38 685.98,518.42 684.38,519.47 682.78,520.51 681.19,521.55 679.60,522.59 678.02,523.63 676.44,524.66 674.86,525.70 673.29,526.73 671.73,527.76 670.16,528.79 668.61,529.81 667.06,530.83 665.51,531.86 663.96,532.87 662.43,533.89 660.89,534.91 659.36,535.92 657.84,536.93 656.32,537.94 654.81,538.95 653.30,539.95 651.79,540.95 650.29,541.95 648.80,542.95 647.31,543.95 645.83,544.94 644.35,545.93 642.87,546.92 641.41,547.90 639.94,548.89 638.49,549.87 637.04,550.85 635.59,551.82 634.15,552.80 632.71,553.77 631.28,554.73 629.86,555.70 628.44,556.66 627.03,557.62 625.62,558.58 624.22,559.54 622.83,560.49 621.44,561.44 620.05,562.39 618.68,563.33 617.31,564.28 615.94,565.21">
    <lane id="-1_0" index="0" disallow="pedestrian tram rail_urban rail rail_electric rail_fast ship" speed="22.22" length="403.59" width="3.75" shape="985.92,343.08 984.29,344.07 982.57,345.10 980.85,346.14 979.12,347.19 977.40,348.23 975.67,349.27 973.93,350.32 972.20,351.37 970.46,352.42 968.72,353.47 966.98,354.53 965.23,355.58 963.49,356.64 961.74,357.70 959.98,358.76 958.23,359.82 956.47,360.88 954.72,361.95 952.96,363.01 951.19,364.08 949.43,365.15 947.66,366.22 945.90,367.29 944.13,368.37 942.35,369.44 940.58,370.52 938.81,371.60 937.03,372.68 935.25,373.76 933.47,374.84 931.69,375.92 929.91,377.00 928.12,378.09 926.34,379.17 924.55,380.26 922.76,381.35 920.97,382.44 919.18,383.53 917.39,384.62 915.59,385.71 913.80,386.81 912.00,387.90 910.20,389.00 908.41,390.09 906.61,391.19 904.81,392.29 903.01,393.39 901.20,394.49 899.40,395.59 897.60,396.69 895.80,397.80 893.99,398.90 892.19,400.00 890.38,401.11 888.57,402.21 886.77,403.32 884.96,404.43 883.15,405.53 881.34,406.64 879.53,407.75 877.73,408.86 875.92,409.97 874.11,411.08 872.30,412.19 870.49,413.30 868.68,414.41 866.87,415.53 865.06,416.64 863.25,417.75 861.44,418.87 859.63,419.98 857.82,421.09 856.01,422.21 854.20,423.32 852.39,424.44 850.58,425.55 848.77,426.67 846.97,427.79 845.16,428.90 843.35,430.02 841.55,431.13 839.74,432.25 837.94,433.37 836.13,434.48 834.33,435.60 832.52,436.72 830.72,437.83 828.92,438.95 827.12,440.07 825.32,441.18 823.52,442.30 821.72,443.41 819.93,444.53 818.13,445.65 816.33,446.76 814.54,447.88 812.75,448.99 810.96,450.11 809.17,451.22 807.38,452.34 805.59,453.45 803.81,454.57 802.02,455.68 800.24,456.79 798.46,457.91 796.68,459.02 794.90,460.13 793.12,461.24 791.35,462.35 789.57,463.46 787.80,464.58 786.03,465.68 784.27,466.79 782.50,467.90 780.74,469.01 778.97,470.12 777.21,471.22 775.46,472.33 773.70,473.43 771.95,474.54 770.19,475.64 768.44,476.75 766.70,477.85 764.95,478.95 763.21,480.05 761.47,481.15 759.73,482.25 758.00,483.35 756.27,484.44 754.54,485.54 752.81,486.63 751.08,487.73 749.36,488.82 747.64,489.91 745.93,491.01 744.21,492.10 742.50,493.18 740.79,494.27 739.09,495.36 737.39,496.44 735.69,497.53 733.99,498.61 732.30,499.69 730.61,500.77 728.92,501.85 727.24,502.93 725.56,504.01 723.88,505.08 722.21,506.16 720.54,507.23 718.87,508.30 717.21,509.37 715.55,510.44 713.89,511.51 712.24,512.57 710.59,513.64 708.94,514.70 707.30,515.76 705.66,516.82 704.03,517.88 702.40,518.93 700.77,519.99 699.15,521.04 697.53,522.09 695.92,523.14 694.31,524.19 692.70,525.23 691.10,526.28 689.50,527.32 687.91,528.36 686.32,529.40 684.74,530.44 683.16,531.47 681.58,532.50 680.01,533.53 678.44,534.56 676.88,535.59 675.32,536.62 673.77,537.64 672.22,538.66 670.67,539.68 669.13,540.70 667.60,541.71 666.07,542.72 664.54,543.73 663.02,544.74 661.51,545.75 660.00,546.75 658.49,547.75 656.99,548.75 655.50,549.75 654.01,550.75 652.52,551.74 651.04,552.73 649.57,553.72 648.10,554.70 646.64,555.68 645.18,556.66 644.16,557.35" type="driving"/>