<?xml version='1.0' encoding='UTF-8'?>
<!-- generated on 2022-09-05 18:38:51 by Eclipse SUMO netconvert Version 1.13.0
<configuration xmlns:xsi="http://www.w3.org/2001/XMLSchema-instance" xsi:noNamespaceSchemaLocation="http://sumo.dlr.de/xsd/netconvertConfiguration.xsd">

    <input>
        <opendrive-files value="map\classification\7\64627531\64627531.xodr"/>
    </input>

    <output>
        <output-file value="C:\Users\LinGe\AppData\Local\Temp\tmpiqhqr4fm\64627531.net.xml"/>
    </output>

    <processing>
        <geometry.max-grade.fix value="false"/>
    </processing>

    <tls_building>
        <tls.left-green.time value="0"/>
    </tls_building>

    <junctions>
        <rectangular-lane-cut value="true"/>
    </junctions>

    <report>
        <aggregate-warnings value="5"/>
    </report>

</configuration>
-->
<net xmlns:xsi="http://www.w3.org/2001/XMLSchema-instance" version="1.9" junctionCornerDetail="5" rectangularLaneCut="true" limitTurnSpeed="5.50" xsi:noNamespaceSchemaLocation="http://sumo.dlr.de/xsd/net_file.xsd">
  <location netOffset="1.56,101.26" convBoundary="0.00,0.00,1102.73,1302.51" origBoundary="-1.56,-101.26,1101.18,1201.26" projParameter="!"/>
  <type id="bidirectional" priority="1" speed="1.39" disallow="pedestrian tram rail_urban rail rail_electric rail_fast ship" width="3.65"/>
  <type id="border" priority="0" speed="1.39" disallow="all" discard="1" width="0.10"/>
  <type id="driving" priority="1" speed="13.89" disallow="pedestrian tram rail_urban rail rail_electric rail_fast ship" width="3.65"/>
  <type id="entry" priority="1" speed="22.22" disallow="pedestrian tram rail_urban rail rail_electric rail_fast ship" width="3.65"/>
  <type id="exit" priority="1" speed="22.22" disallow="pedestrian tram rail_urban rail rail_electric rail_fast ship" width="3.65"/>
  <type id="median" priority="0" speed="1.39" disallow="all" discard="1" width="0.10"/>
  <type id="mwyEntry" priority="1" speed="22.22" allow="private emergency authority army vip passenger hov taxi bus coach delivery truck trailer motorcycle evehicle custom1 custom2" width="3.65"/>
  <type id="mwyExit" priority="1" speed="22.22" allow="private emergency authority army vip passenger hov taxi bus coach delivery truck trailer motorcycle evehicle custom1 custom2" width="3.65"/>
  <type id="none" priority="0" speed="1.39" disallow="all" discard="1" width="1.00"/>
  <type id="offRamp" priority="1" speed="22.22" allow="private emergency authority army vip passenger hov taxi bus coach delivery truck trailer motorcycle evehicle custom1 custom2" width="3.65"/>
  <type id="onRamp" priority="1" speed="22.22" allow="private emergency authority army vip passenger hov taxi bus coach delivery truck trailer motorcycle evehicle custom1 custom2" width="3.65"/>
  <type id="parking" priority="1" speed="1.39" disallow="pedestrian tram rail_urban rail rail_electric rail_fast ship" width="2.50"/>
  <type id="rail" priority="3" speed="33.33" allow="rail_urban rail rail_electric rail_fast" width="3.65"/>
  <type id="restricted" priority="0" speed="13.89" disallow="all" width="3.65"/>
  <type id="roadWorks" priority="0" speed="1.39" allow="authority" width="3.65"/>
  <type id="shoulder" priority="0" speed="1.39" disallow="all" discard="1" width="1.00"/>
  <type id="special1" priority="1" speed="22.22" allow="custom1" discard="1" width="3.65"/>
  <type id="special2" priority="1" speed="22.22" allow="custom2" discard="1" width="3.65"/>
  <type id="special3" priority="1" speed="22.22" allow="custom1 custom2" discard="1" width="3.65"/>
  <type id="stop" priority="1" speed="13.89" disallow="pedestrian tram rail_urban rail rail_electric rail_fast ship" width="3.65"/>
  <type id="tram" priority="2" speed="13.89" allow="tram" width="3.65"/>
  <edge id=":0_0" function="internal">
    <lane id=":0_0_0" index="0" disallow="pedestrian tram rail_urban rail rail_electric rail_fast ship" speed="18.06" length="79.12" width="3.75" shape="1002.18,274.18 987.03,283.87 965.98,297.94 946.59,311.15 936.47,318.24"/>
  </edge>
  <edge id=":0_1" function="internal">
    <lane id=":0_1_0" index="0" disallow="pedestrian tram rail_urban rail rail_electric rail_fast ship" speed="22.22" length="79.25" width="3.75" shape="1002.18,274.18 934.11,314.76"/>
    <lane id=":0_1_1" index="1" disallow="pedestrian tram rail_urban rail rail_electric rail_fast ship" speed="22.22" length="79.25" width="3.75" shape="1000.26,270.96 932.19,311.54"/>
    <lane id=":0_1_2" index="2" disallow="pedestrian tram rail_urban rail rail_electric rail_fast ship" speed="22.22" length="79.25" width="3.75" shape="998.34,267.74 930.27,308.32"/>
  </edge>
  <edge id=":1_0" function="internal">
    <lane id=":1_0_0" index="0" disallow="pedestrian tram rail_urban rail rail_electric rail_fast ship" speed="15.97" length="18.93" width="3.75" shape="188.98,803.87 193.11,799.34,0.00 195.70,795.22,0.00 197.17,791.37,0.00 197.97,787.64,0.00"/>
  </edge>
  <edge id=":1_1" function="internal">
    <lane id=":1_1_0" index="0" disallow="pedestrian tram rail_urban rail rail_electric rail_fast ship" speed="22.22" length="19.55" width="3.75" shape="188.98,803.87 203.23,790.46"/>
    <lane id=":1_1_1" index="1" disallow="pedestrian tram rail_urban rail rail_electric rail_fast ship" speed="22.22" length="19.55" width="3.75" shape="191.55,806.59 205.79,793.20"/>
    <lane id=":1_1_2" index="2" disallow="pedestrian tram rail_urban rail rail_electric rail_fast ship" speed="22.22" length="19.55" width="3.75" shape="194.13,809.32 208.35,795.94"/>
  </edge>
  <edge id=":13.12_0" function="internal">
    <lane id=":13.12_0_0" index="0" disallow="pedestrian tram rail_urban rail rail_electric rail_fast ship" speed="22.22" length="0.30" width="3.75" shape="467.22,516.07,20.00 467.03,515.84,20.00"/>
    <lane id=":13.12_0_1" index="1" disallow="pedestrian tram rail_urban rail rail_electric rail_fast ship" speed="22.22" length="0.30" width="3.75" shape="470.14,513.72,20.00 469.95,513.48,20.00"/>
    <lane id=":13.12_0_2" index="2" disallow="pedestrian tram rail_urban rail rail_electric rail_fast ship" speed="22.22" length="0.30" width="3.75" shape="473.05,511.36,20.00 472.86,511.12,20.00"/>
  </edge>
  <edge id=":16.15_0" function="internal">
    <lane id=":16.15_0_0" index="0" disallow="pedestrian tram rail_urban rail rail_electric rail_fast ship" speed="19.44" length="0.30" width="3.75" shape="550.03,912.74,9.46 549.74,912.65,9.46"/>
  </edge>
  <edge id=":18.17_0" function="internal">
    <lane id=":18.17_0_0" index="0" disallow="pedestrian tram rail_urban rail rail_electric rail_fast ship" speed="13.89" length="0.98" width="3.75" shape="755.49,714.79,13.64 755.70,713.99,14.14"/>
  </edge>
  <edge id=":2_0" function="internal">
    <lane id=":2_0_0" index="0" disallow="pedestrian tram rail_urban rail rail_electric rail_fast ship" speed="20.83" length="45.56" width="3.75" shape="982.88,1224.70,20.00 975.05,1214.67,19.96 966.03,1204.25,19.92 957.98,1195.45,19.88 953.05,1190.30,19.86"/>
  </edge>
  <edge id=":2_1" function="internal">
    <lane id=":2_1_0" index="0" disallow="pedestrian tram rail_urban rail rail_electric rail_fast ship" speed="22.22" length="45.67" width="3.75" shape="982.88,1224.70,20.00 956.41,1187.48,20.00"/>
    <lane id=":2_1_1" index="1" disallow="pedestrian tram rail_urban rail rail_electric rail_fast ship" speed="22.22" length="45.67" width="3.75" shape="985.94,1222.52,20.00 959.46,1185.30,20.00"/>
    <lane id=":2_1_2" index="2" disallow="pedestrian tram rail_urban rail rail_electric rail_fast ship" speed="22.22" length="45.67" width="3.75" shape="988.99,1220.35,20.00 962.52,1183.13,20.00"/>
  </edge>
  <edge id=":2.1_0" function="internal">
    <lane id=":2.1_0_0" index="0" disallow="pedestrian tram rail_urban rail rail_electric rail_fast ship" speed="22.22" length="0.30" width="3.75" shape="418.59,638.03 418.35,638.20"/>
    <lane id=":2.1_0_1" index="1" disallow="pedestrian tram rail_urban rail rail_electric rail_fast ship" speed="22.22" length="0.30" width="3.75" shape="416.38,635.00 416.14,635.17"/>
    <lane id=":2.1_0_2" index="2" disallow="pedestrian tram rail_urban rail rail_electric rail_fast ship" speed="22.22" length="0.30" width="3.75" shape="414.18,631.96 413.93,632.14"/>
  </edge>
  <edge id=":21.20_0" function="internal">
    <lane id=":21.20_0_0" index="0" disallow="pedestrian tram rail_urban rail rail_electric rail_fast ship" speed="19.44" length="0.30" width="3.75" shape="423.33,510.30,5.97 423.43,510.02,5.97"/>
  </edge>
  <edge id=":23.22_0" function="internal">
    <lane id=":23.22_0_0" index="0" disallow="pedestrian tram rail_urban rail rail_electric rail_fast ship" speed="9.72" length="0.30" width="3.75" shape="325.56,75.47,7.25 325.86,75.44,7.25"/>
  </edge>
  <edge id=":3_0" function="internal">
    <lane id=":3_0_0" index="0" disallow="pedestrian tram rail_urban rail rail_electric rail_fast ship" speed="20.83" length="39.46" width="3.75" shape="116.19,912.64,0.10 110.97,915.95,0.08 102.93,921.60,0.06 93.70,928.76,0.03 84.91,936.59"/>
  </edge>
  <edge id=":3_1" function="internal">
    <lane id=":3_1_0" index="0" disallow="pedestrian tram rail_urban rail rail_electric rail_fast ship" speed="22.22" length="38.78" width="3.75" shape="112.54,909.38 84.91,936.59"/>
    <lane id=":3_1_1" index="1" disallow="pedestrian tram rail_urban rail rail_electric rail_fast ship" speed="22.22" length="38.78" width="3.75" shape="109.91,906.71 82.28,933.92"/>
    <lane id=":3_1_2" index="2" disallow="pedestrian tram rail_urban rail rail_electric rail_fast ship" speed="22.22" length="38.78" width="3.75" shape="107.28,904.04 79.65,931.25"/>
  </edge>
  <edge id=":4_0" function="internal">
    <lane id=":4_0_0" index="0" disallow="pedestrian tram rail_urban rail rail_electric rail_fast ship" speed="19.44" length="3.00" width="3.75" shape="659.91,966.69,12.05 657.34,965.15,11.98"/>
  </edge>
  <edge id=":4_1" function="internal">
    <lane id=":4_1_0" index="0" disallow="pedestrian tram rail_urban rail rail_electric rail_fast ship" speed="19.44" length="3.00" width="3.75" shape="659.91,966.69,12.05 657.34,965.14,12.02"/>
  </edge>
  <edge id=":5_0" function="internal">
    <lane id=":5_0_0" index="0" disallow="pedestrian tram rail_urban rail rail_electric rail_fast ship" speed="18.06" length="51.91" width="3.75" shape="787.24,903.58,20.00 791.07,910.74,20.00 798.02,923.01,20.00 806.20,936.72,20.00 813.71,948.21,20.00"/>
  </edge>
  <edge id=":5_1" function="internal">
    <lane id=":5_1_0" index="0" disallow="pedestrian tram rail_urban rail rail_electric rail_fast ship" speed="22.22" length="51.45" width="3.75" shape="783.73,906.39,20.00 813.71,948.21,20.00"/>
    <lane id=":5_1_1" index="1" disallow="pedestrian tram rail_urban rail rail_electric rail_fast ship" speed="22.22" length="51.45" width="3.75" shape="780.69,908.58,20.00 810.66,950.39,20.00"/>
    <lane id=":5_1_2" index="2" disallow="pedestrian tram rail_urban rail rail_electric rail_fast ship" speed="22.22" length="51.45" width="3.75" shape="777.64,910.77,20.00 807.61,952.57,20.00"/>
  </edge>
  <edge id=":6_0" function="internal">
    <lane id=":6_0_0" index="0" disallow="pedestrian tram rail_urban rail rail_electric rail_fast ship" speed="20.83" length="24.21" width="3.75" shape="871.76,318.71,0.01 876.00,318.30,0.01 881.25,317.39,0.01 887.49,315.42,0.00 894.72,311.81"/>
  </edge>
  <edge id=":6_1" function="internal">
    <lane id=":6_1_0" index="0" disallow="pedestrian tram rail_urban rail rail_electric rail_fast ship" speed="22.22" length="22.93" width="3.75" shape="875.04,323.59 894.72,311.81"/>
    <lane id=":6_1_1" index="1" disallow="pedestrian tram rail_urban rail rail_electric rail_fast ship" speed="22.22" length="22.93" width="3.75" shape="876.96,326.80 896.64,315.03"/>
    <lane id=":6_1_2" index="2" disallow="pedestrian tram rail_urban rail rail_electric rail_fast ship" speed="22.22" length="22.93" width="3.75" shape="878.89,330.02 898.57,318.25"/>
  </edge>
  <edge id=":6.5_0" function="internal">
    <lane id=":6.5_0_0" index="0" disallow="pedestrian tram rail_urban rail rail_electric rail_fast ship" speed="22.22" length="0.30" width="3.75" shape="404.96,619.81 405.21,619.63"/>
    <lane id=":6.5_0_1" index="1" disallow="pedestrian tram rail_urban rail rail_electric rail_fast ship" speed="22.22" length="0.30" width="3.75" shape="407.17,622.84 407.41,622.66"/>
    <lane id=":6.5_0_2" index="2" disallow="pedestrian tram rail_urban rail rail_electric rail_fast ship" speed="22.22" length="0.30" width="3.75" shape="409.38,625.87 409.62,625.70"/>
  </edge>
  <edge id=":7_0" function="internal">
    <lane id=":7_0_0" index="0" disallow="pedestrian tram rail_urban rail rail_electric rail_fast ship" speed="13.89" length="35.30" width="3.75" shape="755.66,714.16,14.14 754.33,720.95,14.25 752.69,731.55,14.41 751.24,742.19,14.58 750.55,749.07,14.69"/>
  </edge>
  <edge id=":7_1" function="internal">
    <lane id=":7_1_0" index="0" disallow="pedestrian tram rail_urban rail rail_electric rail_fast ship" speed="11.81" length="35.82" width="3.75" shape="751.70,713.27,14.62 750.55,749.07,14.69"/>
  </edge>
  <edge id=":9.8_0" function="internal">
    <lane id=":9.8_0_0" index="0" disallow="pedestrian tram rail_urban rail rail_electric rail_fast ship" speed="22.22" length="0.30" width="3.75" shape="484.73,501.54,20.00 484.92,501.78,20.00"/>
    <lane id=":9.8_0_1" index="1" disallow="pedestrian tram rail_urban rail rail_electric rail_fast ship" speed="22.22" length="0.30" width="3.75" shape="481.81,503.90,20.00 482.00,504.13,20.00"/>
    <lane id=":9.8_0_2" index="2" disallow="pedestrian tram rail_urban rail rail_electric rail_fast ship" speed="22.22" length="0.30" width="3.75" shape="478.89,506.26,20.00 479.08,506.49,20.00"/>
  </edge>
  <edge id="-0" from="0.begin" to="0" priority="1" type="driving" shape="1102.73,202.87 1101.80,203.45 1100.83,204.05 1099.84,204.66 1098.82,205.29 1097.77,205.93 1096.69,206.59 1095.59,207.27 1094.46,207.96 1093.31,208.66 1092.12,209.39 1090.92,210.12 1089.68,210.87 1088.42,211.64 1087.13,212.42 1085.82,213.21 1084.48,214.02 1083.12,214.85 1081.73,215.69 1080.32,216.54 1078.88,217.41 1077.42,218.29 1075.93,219.19 1074.42,220.09 1072.89,221.02 1071.33,221.96 1069.75,222.91 1068.14,223.87 1066.52,224.85 1064.86,225.84 1063.19,226.84 1061.49,227.86 1059.77,228.89 1058.03,229.94 1056.27,230.99 1054.48,232.06 1052.67,233.14 1050.84,234.24 1048.99,235.34 1047.12,236.46 1045.23,237.59 1043.31,238.74 1041.38,239.89 1039.42,241.06 1037.45,242.24 1035.45,243.43 1033.43,244.64 1031.40,245.85 1029.34,247.08 1027.27,248.31 1025.18,249.56 1023.06,250.82 1020.93,252.09 1018.78,253.38 1016.61,254.67 1014.42,255.97 1012.22,257.29 1010.00,258.61 1007.75,259.95 1005.50,261.29 1003.22,262.65 1000.93,264.02 998.62,265.39 996.29,266.78 993.94,268.18">
    <lane id="-0_0" index="0" disallow="pedestrian tram rail_urban rail rail_electric rail_fast ship" speed="22.22" length="122.98" width="3.75" shape="1107.67,210.84 1106.73,211.43 1105.75,212.03 1104.75,212.65 1103.73,213.28 1102.67,213.92 1101.59,214.59 1100.48,215.27 1099.35,215.96 1098.19,216.67 1097.00,217.39 1095.79,218.13 1094.55,218.88 1093.28,219.65 1091.99,220.43 1090.68,221.23 1089.34,222.04 1087.97,222.87 1086.58,223.71 1085.17,224.57 1083.72,225.44 1082.26,226.32 1080.77,227.22 1079.26,228.13 1077.72,229.05 1076.16,229.99 1074.58,230.94 1072.97,231.91 1071.34,232.89 1069.69,233.88 1068.01,234.88 1066.31,235.90 1064.59,236.93 1062.85,237.98 1061.08,239.04 1059.29,240.11 1057.49,241.19 1055.65,242.28 1053.80,243.39 1051.93,244.51 1050.04,245.64 1048.12,246.79 1046.18,247.94 1044.23,249.11 1042.25,250.29 1040.26,251.48 1038.24,252.69 1036.20,253.90 1034.15,255.13 1032.07,256.37 1029.98,257.61 1027.86,258.87 1025.73,260.15 1023.58,261.43 1021.41,262.72 1019.22,264.03 1017.02,265.34 1014.80,266.66 1012.55,268.00 1010.29,269.35 1008.02,270.70 1005.72,272.07 1003.41,273.45 1002.18,274.18" type="driving"/>
    <lane id="-0_1" index="1" disallow="pedestrian tram rail_urban rail rail_electric rail_fast ship" speed="22.22" length="122.98" width="3.75" shape="1105.69,207.66 1104.75,208.24 1103.78,208.84 1102.79,209.45 1101.76,210.08 1100.71,210.73 1099.63,211.39 1098.53,212.07 1097.39,212.76 1096.24,213.47 1095.05,214.19 1093.84,214.93 1092.60,215.68 1091.34,216.45 1090.05,217.23 1088.74,218.02 1087.40,218.84 1086.03,219.66 1084.64,220.50 1083.23,221.36 1081.79,222.22 1080.32,223.11 1078.84,224.00 1077.32,224.91 1075.79,225.84 1074.23,226.78 1072.65,227.73 1071.04,228.69 1069.41,229.67 1067.76,230.66 1066.08,231.67 1064.38,232.69 1062.66,233.72 1060.92,234.76 1059.16,235.82 1057.37,236.89 1055.56,237.97 1053.73,239.06 1051.88,240.17 1050.01,241.29 1048.11,242.42 1046.20,243.57 1044.26,244.72 1042.31,245.89 1040.33,247.07 1038.33,248.26 1036.32,249.47 1034.28,250.68 1032.23,251.91 1030.15,253.14 1028.06,254.39 1025.94,255.65 1023.81,256.92 1021.66,258.21 1019.49,259.50 1017.30,260.80 1015.10,262.12 1012.88,263.44 1010.63,264.78 1008.38,266.13 1006.10,267.48 1003.81,268.85 1001.49,270.22 1000.26,270.96" type="driving"/>
    <lane id="-0_2" index="2" disallow="pedestrian tram rail_urban rail rail_electric rail_fast ship" speed="22.22" length="122.98" width="3.75" shape="1103.72,204.47 1102.78,205.05 1101.81,205.65 1100.82,206.26 1099.80,206.89 1098.75,207.53 1097.67,208.19 1096.57,208.87 1095.44,209.56 1094.28,210.27 1093.10,210.99 1091.89,211.72 1090.65,212.47 1089.39,213.24 1088.11,214.02 1086.79,214.82 1085.45,215.63 1084.09,216.45 1082.70,217.29 1081.29,218.15 1079.85,219.01 1078.39,219.90 1076.90,220.79 1075.39,221.70 1073.86,222.62 1072.30,223.56 1070.71,224.51 1069.11,225.48 1067.48,226.46 1065.83,227.45 1064.15,228.45 1062.46,229.47 1060.74,230.50 1058.99,231.54 1057.23,232.60 1055.44,233.67 1053.63,234.75 1051.80,235.85 1049.95,236.95 1048.08,238.07 1046.19,239.20 1044.27,240.35 1042.34,241.50 1040.38,242.67 1038.41,243.85 1036.41,245.04 1034.40,246.25 1032.36,247.46 1030.30,248.69 1028.23,249.92 1026.14,251.17 1024.02,252.43 1021.89,253.70 1019.74,254.99 1017.57,256.28 1015.38,257.58 1013.18,258.90 1010.96,260.22 1008.71,261.56 1006.46,262.90 1004.18,264.26 1001.89,265.63 999.58,267.00 998.34,267.74" type="driving"/>
  </edge>
  <edge id="-1" from="0" to="2.1" priority="1" type="driving" shape="993.94,268.18 992.49,269.04 991.02,269.92 989.55,270.79 988.07,271.67 986.59,272.56 985.10,273.45 983.60,274.34 982.10,275.23 980.59,276.13 979.08,277.03 977.56,277.94 976.04,278.84 974.51,279.76 972.97,280.67 971.43,281.59 969.88,282.51 968.32,283.44 966.76,284.37 965.20,285.30 963.63,286.24 962.05,287.18 960.47,288.12 958.89,289.07 957.29,290.02 955.70,290.97 954.09,291.92 952.49,292.88 950.87,293.84 949.25,294.81 947.63,295.78 946.00,296.75 944.37,297.72 942.73,298.70 941.09,299.68 939.44,300.66 937.79,301.65 936.13,302.64 934.47,303.63 932.80,304.62 931.13,305.62 929.46,306.62 927.77,307.62 926.09,308.63 924.40,309.64 922.71,310.65 921.01,311.66 919.31,312.68 917.60,313.70 915.89,314.72 914.17,315.75 912.45,316.77 910.73,317.80 909.00,318.84 907.27,319.87 905.53,320.91 903.79,321.95 902.05,322.99 900.30,324.04 898.55,325.08 896.80,326.13 895.04,327.18 893.27,328.24 891.51,329.30 889.74,330.35 887.96,331.42 886.19,332.48 884.41,333.54 882.62,334.61 880.84,335.68 879.05,336.76 877.25,337.83 875.46,338.91 873.66,339.98 871.85,341.07 870.05,342.15 868.24,343.23 866.42,344.32 864.61,345.41 862.79,346.50 860.97,347.59 859.14,348.69 857.31,349.78 855.48,350.88 853.65,351.98 851.82,353.08 849.98,354.19 848.14,355.29 846.29,356.40 844.45,357.51 842.60,358.62 840.75,359.73 838.90,360.84 837.04,361.96 835.18,363.08 833.32,364.19 831.46,365.31 829.60,366.44 827.73,367.56 825.86,368.68 823.99,369.81 822.12,370.94 820.24,372.07 818.37,373.20 816.49,374.33 814.61,375.46 812.72,376.60 810.84,377.73 808.95,378.87 807.07,380.01 805.18,381.15 803.29,382.29 801.40,383.43 799.50,384.57 797.61,385.72 795.71,386.86 793.81,388.01 791.91,389.16 790.01,390.31 788.11,391.45 786.21,392.61 784.31,393.76 782.40,394.91 780.49,396.06 778.59,397.22 776.68,398.37 774.77,399.53 772.86,400.68 770.95,401.84 769.04,403.00 767.13,404.16 765.21,405.32 763.30,406.48 761.38,407.64 759.47,408.80 757.55,409.97 755.64,411.13 753.72,412.29 751.81,413.46 749.89,414.62 747.97,415.79 746.05,416.95 744.13,418.12 742.22,419.29 740.30,420.46 738.38,421.62 736.46,422.79 734.54,423.96 732.62,425.13 730.71,426.30 728.79,427.47 726.87,428.64 724.95,429.81 723.03,430.98 721.12,432.15 719.20,433.32 717.28,434.49 715.36,435.66 713.45,436.83 711.53,438.00 709.62,439.17 707.70,440.35 705.79,441.52 703.88,442.69 701.96,443.86 700.05,445.03 698.14,446.20 696.23,447.37 694.32,448.54 692.41,449.72 690.51,450.89 688.60,452.06 686.70,453.23 684.79,454.40 682.89,455.57 680.99,456.74 679.09,457.91 677.19,459.07 675.29,460.24 673.39,461.41 671.50,462.58 669.60,463.75 667.71,464.91 665.82,466.08 663.93,467.24 662.04,468.41 660.16,469.58 658.27,470.74 656.39,471.90 654.51,473.07 652.63,474.23 650.75,475.39 648.88,476.55 647.01,477.71 645.14,478.87 643.27,480.03 641.40,481.19 639.53,482.35 637.67,483.50 635.81,484.66 633.95,485.81 632.10,486.97 630.24,488.12 628.39,489.27 626.54,490.42 624.70,491.57 622.85,492.72 621.01,493.87 619.17,495.02 617.34,496.17 615.51,497.31 613.67,498.45 611.85,499.60 610.02,500.74 608.20,501.88 606.38,503.02 604.56,504.16 602.75,505.29 600.94,506.43 599.13,507.56 597.33,508.70 595.53,509.83 593.73,510.96 591.94,512.09 590.15,513.21 588.36,514.34 586.57,515.46 584.79,516.59 583.02,517.71 581.24,518.83 579.47,519.95 577.71,521.06 575.94,522.18 574.18,523.29 572.43,524.40 570.67,525.51 568.93,526.62 567.18,527.73 565.44,528.83 563.71,529.94 561.97,531.04 560.24,532.14 558.52,533.23 556.80,534.33 555.08,535.42 553.37,536.52 551.66,537.61 549.96,538.69 548.26,539.78 546.57,540.87 544.88,541.95 543.19,543.03 541.51,544.11 539.83,545.18 538.16,546.26 536.49,547.33 534.83,548.40 533.17,549.46 531.52,550.53 529.87,551.59 528.23,552.65 526.59,553.71 524.95,554.77 523.33,555.82 521.70,556.87 520.08,557.92 518.47,558.97 516.86,560.01 515.26,561.05 513.66,562.09 512.07,563.13 510.48,564.17 508.90,565.20 507.32,566.23 505.75,567.25 504.18,568.28 502.62,569.30 501.07,570.32 499.52,571.33 497.97,572.35 496.44,573.36 494.91,574.37 493.38,575.37 491.86,576.37 490.34,577.37 488.84,578.37 487.33,579.36 485.84,580.35 484.35,581.34 482.86,582.33 481.38,583.31 479.91,584.29 478.45,585.27 476.99,586.24 475.53,587.21 474.09,588.18 472.65,589.14 471.21,590.10 469.78,591.06 468.36,592.01 466.95,592.97 465.54,593.91 464.14,594.86 462.74,595.80 461.36,596.74 459.98,597.67 458.60,598.61 457.23,599.53 455.87,600.46 454.52,601.38 453.17,602.30 451.83,603.21 450.50,604.13 449.18,605.03 447.86,605.94 446.55,606.84 445.24,607.74 443.95,608.63 442.66,609.52 441.38,610.41 440.10,611.29 438.84,612.17 437.58,613.05 436.33,613.92 435.08,614.78 433.85,615.65 432.62,616.51 431.40,617.37 430.19,618.22 428.98,619.07 427.78,619.91 426.59,620.75 425.41,621.59 424.24,622.43 423.07,623.25 421.92,624.08 420.77,624.90 419.63,625.72 418.49,626.53 417.37,627.34 416.25,628.15 415.14,628.95 414.04,629.74 412.95,630.54">
    <lane id="-1_0" index="0" disallow="pedestrian tram rail_urban rail rail_electric rail_fast ship" speed="22.22" length="608.98" width="3.75" shape="934.11,314.76 932.58,315.67 930.90,316.68 929.21,317.69 927.51,318.70 925.81,319.71 924.11,320.73 922.41,321.75 920.69,322.77 918.98,323.79 917.26,324.82 915.54,325.85 913.81,326.88 912.08,327.92 910.34,328.96 908.60,329.99 906.86,331.04 905.11,332.08 903.36,333.13 901.61,334.18 899.85,335.23 898.09,336.28 896.32,337.34 894.55,338.40 892.78,339.46 891.00,340.52 889.22,341.59 887.44,342.66 885.65,343.73 883.86,344.80 882.07,345.87 880.27,346.95 878.47,348.03 876.67,349.11 874.86,350.19 873.06,351.27 871.24,352.36 869.43,353.45 867.61,354.54 865.79,355.63 863.97,356.72 862.14,357.82 860.31,358.92 858.48,360.02 856.64,361.12 854.80,362.22 852.96,363.33 851.12,364.43 849.28,365.54 847.43,366.65 845.58,367.77 843.73,368.88 841.87,369.99 840.01,371.11 838.15,372.23 836.29,373.35 834.43,374.47 832.56,375.59 830.70,376.72 828.83,377.84 826.95,378.97 825.08,380.10 823.20,381.23 821.33,382.36 819.45,383.49 817.56,384.63 815.68,385.76 813.80,386.90 811.91,388.04 810.02,389.17 808.13,390.32 806.24,391.46 804.35,392.60 802.45,393.74 800.56,394.89 798.66,396.03 796.76,397.18 794.86,398.33 792.96,399.48 791.06,400.63 789.16,401.78 787.25,402.93 785.35,404.08 783.44,405.24 781.53,406.39 779.63,407.55 777.72,408.70 775.81,409.86 773.90,411.02 771.99,412.18 770.07,413.34 768.16,414.50 766.25,415.66 764.33,416.82 762.42,417.98 760.50,419.14 758.59,420.31 756.67,421.47 754.76,422.63 752.84,423.80 750.92,424.96 749.01,426.13 747.09,427.30 745.17,428.46 743.25,429.63 741.34,430.80 739.42,431.97 737.50,433.13 735.59,434.30 733.67,435.47 731.75,436.64 729.83,437.81 727.92,438.98 726.00,440.15 724.08,441.32 722.17,442.49 720.25,443.66 718.34,444.83 716.42,446.00 714.51,447.17 712.60,448.34 710.68,449.51 708.77,450.68 706.86,451.85 704.95,453.02 703.04,454.20 701.13,455.37 699.23,456.54 697.32,457.71 695.41,458.88 693.51,460.05 691.60,461.21 689.70,462.38 687.80,463.55 685.90,464.72 684.00,465.89 682.10,467.06 680.21,468.23 678.31,469.39 676.42,470.56 674.52,471.73 672.63,472.89 670.74,474.06 668.86,475.22 666.97,476.39 665.09,477.55 663.20,478.71 661.32,479.88 659.44,481.04 657.57,482.20 655.69,483.36 653.82,484.52 651.94,485.68 650.08,486.84 648.21,488.00 646.34,489.16 644.48,490.31 642.62,491.47 640.76,492.62 638.90,493.78 637.05,494.93 635.20,496.08 633.35,497.23 631.50,498.38 629.66,499.53 627.81,500.68 625.97,501.83 624.14,502.97 622.30,504.12 620.47,505.26 618.64,506.40 616.82,507.55 614.99,508.69 613.17,509.83 611.36,510.96 609.54,512.10 607.73,513.24 605.92,514.37 604.12,515.50 602.32,516.63 600.52,517.76 598.72,518.89 596.93,520.02 595.14,521.15 593.36,522.27 591.57,523.39 589.79,524.52 588.02,525.64 586.25,526.75 584.48,527.87 582.72,528.99 580.95,530.10 579.20,531.21 577.44,532.32 575.69,533.43 573.95,534.54 572.21,535.64 570.47,536.75 568.73,537.85 567.00,538.95 565.28,540.05 563.56,541.14 561.84,542.24 560.12,543.33 558.42,544.42 556.71,545.51 555.01,546.59 553.31,547.68 551.62,548.76 549.93,549.84 548.25,550.92 546.57,552.00 544.90,553.07 543.23,554.14 541.56,555.21 539.90,556.28 538.25,557.35 536.60,558.41 534.95,559.47 533.31,560.53 531.68,561.59 530.05,562.64 528.42,563.69 526.80,564.74 525.18,565.79 523.57,566.83 521.97,567.88 520.37,568.92 518.77,569.95 517.18,570.99 515.60,572.02 514.02,573.05 512.45,574.08 510.88,575.10 509.32,576.12 507.76,577.14 506.21,578.16 504.66,579.17 503.12,580.18 501.59,581.19 500.06,582.20 498.54,583.20 497.02,584.20 495.51,585.20 494.01,586.19 492.51,587.18 491.01,588.17 489.53,589.16 488.05,590.14 486.57,591.12 485.11,592.09 483.64,593.07 482.19,594.04 480.74,595.01 479.30,595.97 477.86,596.93 476.43,597.89 475.01,598.84 473.59,599.79 472.18,600.74 470.78,601.69 469.38,602.63 467.99,603.57 466.61,604.50 465.23,605.44 463.87,606.36 462.50,607.29 461.15,608.21 459.80,609.13 458.46,610.04 457.13,610.95 455.80,611.86 454.48,612.77 453.17,613.67 451.86,614.56 450.56,615.46 449.27,616.35 447.99,617.23 446.72,618.12 445.45,618.99 444.19,619.87 442.93,620.74 441.69,621.61 440.45,622.47 439.22,623.33 438.00,624.19 436.79,625.04 435.58,625.89 434.38,626.73 433.19,627.57 432.01,628.41 430.84,629.24 429.67,630.07 428.51,630.89 427.36,631.71 426.22,632.53 425.09,633.34 423.96,634.15 422.85,634.95 421.74,635.75 420.64,636.54 419.55,637.33 418.59,638.03" type="driving"/>