<?xml version='1.0' encoding='UTF-8'?>
<!-- generated on 2022-11-12 22:20:10 by Eclipse SUMO netconvert Version 1.13.0
<configuration xmlns:xsi="http://www.w3.org/2001/XMLSchema-instance" xsi:noNamespaceSchemaLocation="http://sumo.dlr.de/xsd/netconvertConfiguration.xsd">

    <input>
        <opendrive-files value="map_v4\3\24567263\24567263.xodr"/>
    </input>

    <output>
        <output-file value="C:\Users\LinGe\AppData\Local\Temp\tmp3u0gml4h\24567263.net.xml"/>
    </output>

    <processing>
        <geometry.max-grade.fix value="false"/>
    </processing>

    <tls_building>
        <tls.left-green.time value="0"/>
    </tls_building>

    <junctions>
        <rectangular-lane-cut value="true"/>
    </junctions>

    <report>
        <aggregate-warnings value="5"/>
    </report>

</configuration>
-->
<net xmlns:xsi="http://www.w3.org/2001/XMLSchema-instance" version="1.9" junctionCornerDetail="5" rectangularLaneCut="true" limitTurnSpeed="5.50" xsi:noNamespaceSchemaLocation="http://sumo.dlr.de/xsd/net_file.xsd">
  <location netOffset="1.11,101.66" convBoundary="0.00,0.00,1202.22,804.57" origBoundary="-1.11,-101.66,1201.11,702.91" projParameter="!"/>
  <type id="bidirectional" priority="1" speed="1.39" disallow="pedestrian tram rail_urban rail rail_electric rail_fast ship" width="3.65"/>
  <type id="border" priority="0" speed="1.39" disallow="all" discard="1" width="0.10"/>
  <type id="driving" priority="1" speed="13.89" disallow="pedestrian tram rail_urban rail rail_electric rail_fast ship" width="3.65"/>
  <type id="entry" priority="1" speed="22.22" disallow="pedestrian tram rail_urban rail rail_electric rail_fast ship" width="3.65"/>
  <type id="exit" priority="1" speed="22.22" disallow="pedestrian tram rail_urban rail rail_electric rail_fast ship" width="3.65"/>
  <type id="median" priority="0" speed="1.39" disallow="all" discard="1" width="0.10"/>
  <type id="mwyEntry" priority="1" speed="22.22" allow="private emergency authority army vip passenger hov taxi bus coach delivery truck trailer motorcycle evehicle custom1 custom2" width="3.65"/>
  <type id="mwyExit" priority="1" speed="22.22" allow="private emergency authority army vip passenger hov taxi bus coach delivery truck trailer motorcycle evehicle custom1 custom2" width="3.65"/>
  <type id="none" priority="0" speed="1.39" disallow="all" discard="1" width="1.00"/>
  <type id="offRamp" priority="1" speed="22.22" allow="private emergency authority army vip passenger hov taxi bus coach delivery truck trailer motorcycle evehicle custom1 custom2" width="3.65"/>
  <type id="onRamp" priority="1" speed="22.22" allow="private emergency authority army vip passenger hov taxi bus coach delivery truck trailer motorcycle evehicle custom1 custom2" width="3.65"/>
  <type id="parking" priority="1" speed="1.39" disallow="pedestrian tram rail_urban rail rail_electric rail_fast ship" width="2.50"/>
  <type id="rail" priority="3" speed="33.33" allow="rail_urban rail rail_electric rail_fast" width="3.65"/>
  <type id="restricted" priority="0" speed="13.89" disallow="all" width="3.65"/>
  <type id="roadWorks" priority="0" speed="1.39" allow="authority" width="3.65"/>
  <type id="shoulder" priority="0" speed="1.39" disallow="all" discard="1" width="1.00"/>
  <type id="special1" priority="1" speed="22.22" allow="custom1" discard="1" width="3.65"/>
  <type id="special2" priority="1" speed="22.22" allow="custom2" discard="1" width="3.65"/>
  <type id="special3" priority="1" speed="22.22" allow="custom1 custom2" discard="1" width="3.65"/>
  <type id="stop" priority="1" speed="13.89" disallow="pedestrian tram rail_urban rail rail_electric rail_fast ship" width="3.65"/>
  <type id="tram" priority="2" speed="13.89" allow="tram" width="3.65"/>
  <edge id=":0_0" function="internal">
    <lane id=":0_0_0" index="0" disallow="pedestrian tram rail_urban rail rail_electric rail_fast ship" speed="15.97" length="50.84" width="3.75" shape="1106.39,257.50 1094.35,263.73 1080.80,271.48 1069.03,278.56 1062.31,282.80"/>
  </edge>
  <edge id=":0_1" function="internal">
    <lane id=":0_1_0" index="0" disallow="pedestrian tram rail_urban rail rail_electric rail_fast ship" speed="22.22" length="50.98" width="3.75" shape="1106.39,257.50 1060.16,279.02"/>
    <lane id=":0_1_1" index="1" disallow="pedestrian tram rail_urban rail rail_electric rail_fast ship" speed="22.22" length="50.98" width="3.75" shape="1104.80,254.10 1058.58,275.62"/>
    <lane id=":0_1_2" index="2" disallow="pedestrian tram rail_urban rail rail_electric rail_fast ship" speed="22.22" length="50.98" width="3.75" shape="1103.22,250.70 1057.00,272.21"/>
  </edge>
  <edge id=":1_0" function="internal">
    <lane id=":1_0_0" index="0" disallow="pedestrian tram rail_urban rail rail_electric rail_fast ship" speed="19.44" length="45.17" width="3.75" shape="497.29,499.35 485.18,503.10,0.04 472.36,507.77,0.08 461.42,512.16,0.11 454.97,515.04,0.13"/>
  </edge>
  <edge id=":1_1" function="internal">
    <lane id=":1_1_0" index="0" disallow="pedestrian tram rail_urban rail rail_electric rail_fast ship" speed="22.22" length="45.47" width="3.75" shape="497.29,499.35 453.23,510.76"/>
    <lane id=":1_1_1" index="1" disallow="pedestrian tram rail_urban rail rail_electric rail_fast ship" speed="22.22" length="45.47" width="3.75" shape="496.33,495.72 452.31,507.12"/>
    <lane id=":1_1_2" index="2" disallow="pedestrian tram rail_urban rail rail_electric rail_fast ship" speed="22.22" length="45.47" width="3.75" shape="495.37,492.10 451.39,503.49"/>
  </edge>
  <edge id=":10_0" function="internal">
    <lane id=":10_0_0" index="0" disallow="pedestrian tram rail_urban rail rail_electric rail_fast ship" speed="19.44" length="54.09" width="3.75" shape="205.28,182.09,20.00 199.36,176.05,20.00 188.68,165.74,20.00 176.40,154.39,20.00 165.70,145.25,20.00"/>
  </edge>
  <edge id=":10_1" function="internal">
    <lane id=":10_1_0" index="0" disallow="pedestrian tram rail_urban rail rail_electric rail_fast ship" speed="22.22" length="53.61" width="3.75" shape="207.87,178.35,20.00 165.70,145.25,20.00"/>
    <lane id=":10_1_1" index="1" disallow="pedestrian tram rail_urban rail rail_electric rail_fast ship" speed="22.22" length="53.61" width="3.75" shape="210.18,175.40,20.00 168.02,142.30,20.00"/>
    <lane id=":10_1_2" index="2" disallow="pedestrian tram rail_urban rail rail_electric rail_fast ship" speed="22.22" length="53.61" width="3.75" shape="212.50,172.45,20.00 170.33,139.36,20.00"/>
  </edge>
  <edge id=":11_0" function="internal">
    <lane id=":11_0_0" index="0" disallow="pedestrian tram rail_urban rail rail_electric rail_fast ship" speed="20.83" length="76.26" width="3.75" shape="1005.85,274.32 1017.04,270.23 1038.00,262.12 1060.60,253.10 1076.74,246.24"/>
  </edge>
  <edge id=":11_1" function="internal">
    <lane id=":11_1_0" index="0" disallow="pedestrian tram rail_urban rail rail_electric rail_fast ship" speed="22.22" length="75.91" width="3.75" shape="1007.89,278.17 1076.74,246.24"/>
    <lane id=":11_1_1" index="1" disallow="pedestrian tram rail_urban rail rail_electric rail_fast ship" speed="22.22" length="75.91" width="3.75" shape="1009.46,281.58 1078.33,249.64"/>
    <lane id=":11_1_2" index="2" disallow="pedestrian tram rail_urban rail rail_electric rail_fast ship" speed="22.22" length="75.91" width="3.75" shape="1011.03,284.98 1079.91,253.04"/>
  </edge>
  <edge id=":12_0" function="internal">
    <lane id=":12_0_0" index="0" disallow="pedestrian tram rail_urban rail rail_electric rail_fast ship" speed="19.44" length="44.17" width="3.75" shape="718.63,559.15,19.87 713.48,554.55,19.89 704.63,547.28,19.93 694.06,539.20,19.96 683.74,532.12,20.00"/>
  </edge>
  <edge id=":12_1" function="internal">
    <lane id=":12_1_0" index="0" disallow="pedestrian tram rail_urban rail rail_electric rail_fast ship" speed="22.22" length="43.51" width="3.75" shape="720.90,554.88,20.00 683.74,532.12,20.00"/>
    <lane id=":12_1_1" index="1" disallow="pedestrian tram rail_urban rail rail_electric rail_fast ship" speed="22.22" length="43.51" width="3.75" shape="722.83,551.67,20.00 685.73,528.94,20.00"/>
    <lane id=":12_1_2" index="2" disallow="pedestrian tram rail_urban rail rail_electric rail_fast ship" speed="22.22" length="43.51" width="3.75" shape="724.76,548.46,20.00 687.72,525.76,20.00"/>
  </edge>
  <edge id=":13_0" function="internal">
    <lane id=":13_0_0" index="0" disallow="pedestrian tram rail_urban rail rail_electric rail_fast ship" speed="15.97" length="39.71" width="3.75" shape="452.61,482.16,0.00 458.82,482.09,0.00 468.70,481.28,0.00 480.37,479.68,0.00 491.92,477.24"/>
  </edge>
  <edge id=":13_1" function="internal">
    <lane id=":13_1_0" index="0" disallow="pedestrian tram rail_urban rail rail_electric rail_fast ship" speed="22.22" length="38.94" width="3.75" shape="454.27,487.03 491.92,477.24"/>
    <lane id=":13_1_1" index="1" disallow="pedestrian tram rail_urban rail rail_electric rail_fast ship" speed="22.22" length="38.94" width="3.75" shape="455.19,490.67 492.89,480.87"/>
    <lane id=":13_1_2" index="2" disallow="pedestrian tram rail_urban rail rail_electric rail_fast ship" speed="22.22" length="38.94" width="3.75" shape="456.12,494.30 493.85,484.49"/>
  </edge>
  <edge id=":14_0" function="internal">
    <lane id=":14_0_0" index="0" disallow="pedestrian tram rail_urban rail rail_electric rail_fast ship" speed="20.83" length="52.49" width="3.75" shape="429.36,315.51,19.88 435.13,321.34,19.90 445.52,331.18,19.93 457.52,342.01,19.97 468.17,350.82,20.00"/>
  </edge>
  <edge id=":14_1" function="internal">
    <lane id=":14_1_0" index="0" disallow="pedestrian tram rail_urban rail rail_electric rail_fast ship" speed="22.22" length="52.00" width="3.75" shape="426.79,319.35,20.00 468.17,350.82,20.00"/>
    <lane id=":14_1_1" index="1" disallow="pedestrian tram rail_urban rail rail_electric rail_fast ship" speed="22.22" length="52.00" width="3.75" shape="424.52,322.33,20.00 465.91,353.81,20.00"/>
    <lane id=":14_1_2" index="2" disallow="pedestrian tram rail_urban rail rail_electric rail_fast ship" speed="22.22" length="52.00" width="3.75" shape="422.24,325.31,20.00 463.64,356.80,20.00"/>
  </edge>
  <edge id=":15_0" function="internal">
    <lane id=":15_0_0" index="0" disallow="pedestrian tram rail_urban rail rail_electric rail_fast ship" speed="16.67" length="41.11" width="3.75" shape="782.91,407.87 776.58,408.95 766.45,411.30 754.65,414.62 743.29,418.57"/>
  </edge>
  <edge id=":15_1" function="internal">
    <lane id=":15_1_0" index="0" disallow="pedestrian tram rail_urban rail rail_electric rail_fast ship" speed="22.22" length="40.35" width="3.75" shape="780.70,403.36 743.29,418.57"/>
    <lane id=":15_1_1" index="1" disallow="pedestrian tram rail_urban rail rail_electric rail_fast ship" speed="22.22" length="40.35" width="3.75" shape="779.27,399.89 741.89,415.09"/>
    <lane id=":15_1_2" index="2" disallow="pedestrian tram rail_urban rail rail_electric rail_fast ship" speed="22.22" length="40.35" width="3.75" shape="777.84,396.43 740.50,411.61"/>
  </edge>
  <edge id=":15.14_0" function="internal">
    <lane id=":15.14_0_0" index="0" disallow="pedestrian tram rail_urban rail rail_electric rail_fast ship" speed="22.22" length="0.30" width="3.75" shape="655.88,487.08,20.00 656.13,487.24,20.00"/>
    <lane id=":15.14_0_1" index="1" disallow="pedestrian tram rail_urban rail rail_electric rail_fast ship" speed="22.22" length="0.30" width="3.75" shape="653.80,490.20,20.00 654.05,490.36,20.00"/>
    <lane id=":15.14_0_2" index="2" disallow="pedestrian tram rail_urban rail rail_electric rail_fast ship" speed="22.22" length="0.30" width="3.75" shape="651.72,493.31,20.00 651.97,493.48,20.00"/>
  </edge>
  <edge id=":2_0" function="internal">
    <lane id=":2_0_0" index="0" disallow="pedestrian tram rail_urban rail rail_electric rail_fast ship" speed="19.44" length="54.05" width="3.75" shape="133.15,560.87 146.76,557.35 162.76,552.55 176.87,547.96 184.82,545.11"/>
  </edge>
  <edge id=":2_1" function="internal">
    <lane id=":2_1_0" index="0" disallow="pedestrian tram rail_urban rail rail_electric rail_fast ship" speed="22.22" length="54.26" width="3.75" shape="133.15,560.87 186.17,549.38"/>
    <lane id=":2_1_1" index="1" disallow="pedestrian tram rail_urban rail rail_electric rail_fast ship" speed="22.22" length="54.26" width="3.75" shape="133.94,564.54 186.97,553.04"/>
    <lane id=":2_1_2" index="2" disallow="pedestrian tram rail_urban rail rail_electric rail_fast ship" speed="22.22" length="54.26" width="3.75" shape="134.73,568.20 187.77,556.71"/>
  </edge>
  <edge id=":21.20_0" function="internal">
    <lane id=":21.20_0_0" index="0" disallow="pedestrian tram rail_urban rail rail_electric rail_fast ship" speed="22.22" length="0.30" width="3.75" shape="643.51,506.17,20.00 643.26,506.00,20.00"/>
    <lane id=":21.20_0_1" index="1" disallow="pedestrian tram rail_urban rail rail_electric rail_fast ship" speed="22.22" length="0.30" width="3.75" shape="645.59,503.05,20.00 645.34,502.88,20.00"/>
    <lane id=":21.20_0_2" index="2" disallow="pedestrian tram rail_urban rail rail_electric rail_fast ship" speed="22.22" length="0.30" width="3.75" shape="647.67,499.93,20.00 647.42,499.77,20.00"/>
  </edge>
  <edge id=":25.24_0" function="internal">
    <lane id=":25.24_0_0" index="0" disallow="pedestrian tram rail_urban rail rail_electric rail_fast ship" speed="9.72" length="0.29" width="3.75" shape="877.13,482.77,10.75 877.08,483.06,10.77"/>
  </edge>
  <edge id=":27.26_0" function="internal">
    <lane id=":27.26_0_0" index="0" disallow="pedestrian tram rail_urban rail rail_electric rail_fast ship" speed="13.89" length="0.30" width="3.75" shape="529.83,552.13,9.47 529.53,552.10,9.46"/>
  </edge>
  <edge id=":29.28_0" function="internal">
    <lane id=":29.28_0_0" index="0" disallow="pedestrian tram rail_urban rail rail_electric rail_fast ship" speed="16.67" length="0.30" width="3.75" shape="264.56,374.40,9.93 264.58,374.10,9.94"/>
  </edge>
  <edge id=":3_0" function="internal">
    <lane id=":3_0_0" index="0" disallow="pedestrian tram rail_urban rail rail_electric rail_fast ship" speed="20.83" length="53.03" width="3.75" shape="735.06,397.37 747.73,391.65,0.03 762.33,384.28,0.07 775.10,377.44,0.10 782.27,373.28,0.12"/>
  </edge>
  <edge id=":3_1" function="internal">
    <lane id=":3_1_0" index="0" disallow="pedestrian tram rail_urban rail rail_electric rail_fast ship" speed="22.22" length="53.18" width="3.75" shape="735.06,397.37 784.23,377.27"/>
    <lane id=":3_1_1" index="1" disallow="pedestrian tram rail_urban rail rail_electric rail_fast ship" speed="22.22" length="53.18" width="3.75" shape="736.45,400.85 785.68,380.73"/>
    <lane id=":3_1_2" index="2" disallow="pedestrian tram rail_urban rail rail_electric rail_fast ship" speed="22.22" length="53.18" width="3.75" shape="737.84,404.33 787.12,384.19"/>
  </edge>
  <edge id=":3.2_0" function="internal">
    <lane id=":3.2_0_0" index="0" disallow="pedestrian tram rail_urban rail rail_electric rail_fast ship" speed="22.22" length="0.30" width="3.75" shape="631.72,459.93 631.43,460.02"/>
    <lane id=":3.2_0_1" index="1" disallow="pedestrian tram rail_urban rail rail_electric rail_fast ship" speed="22.22" length="0.30" width="3.75" shape="630.54,456.37 630.25,456.47"/>
    <lane id=":3.2_0_2" index="2" disallow="pedestrian tram rail_urban rail rail_electric rail_fast ship" speed="22.22" length="0.30" width="3.75" shape="629.35,452.81 629.07,452.91"/>
  </edge>
  <edge id=":31.30_0" function="internal">
    <lane id=":31.30_0_0" index="0" disallow="pedestrian tram rail_urban rail rail_electric rail_fast ship" speed="19.44" length="0.30" width="3.75" shape="668.32,259.94,8.47 668.62,259.99,8.47"/>
  </edge>
  <edge id=":33.32_0" function="internal">
    <lane id=":33.32_0_0" index="0" disallow="pedestrian tram rail_urban rail rail_electric rail_fast ship" speed="16.67" length="0.29" width="3.75" shape="541.14,799.69,9.97 541.43,799.74,9.98"/>
  </edge>
  <edge id=":35.34_0" function="internal">
    <lane id=":35.34_0_0" index="0" disallow="pedestrian tram rail_urban rail rail_electric rail_fast ship" speed="9.72" length="0.26" width="3.75" shape="405.48,426.61,10.02 405.45,426.87,9.98"/>
  </edge>
  <edge id=":37.36_0" function="internal">
    <lane id=":37.36_0_0" index="0" disallow="pedestrian tram rail_urban rail rail_electric rail_fast ship" speed="19.44" length="0.30" width="3.75" shape="660.52,12.36,9.93 660.23,12.30,9.94"/>
  </edge>
  <edge id=":39.38_0" function="internal">
    <lane id=":39.38_0_0" index="0" disallow="pedestrian tram rail_urban rail rail_electric rail_fast ship" speed="11.11" length="0.28" width="3.75" shape="857.05,504.33,10.16 857.16,504.08,10.13"/>
  </edge>
  <edge id=":4_0" function="internal">
    <lane id=":4_0_0" index="0" disallow="pedestrian tram rail_urban rail rail_electric rail_fast ship" speed="20.83" length="30.57" width="3.75" shape="129.84,88.11,20.00 138.31,94.07,19.99 145.81,98.31,19.98 151.95,101.19,19.97 156.37,103.08,19.96"/>
  </edge>
  <edge id=":4_1" function="internal">
    <lane id=":4_1_0" index="0" disallow="pedestrian tram rail_urban rail rail_electric rail_fast ship" speed="22.22" length="30.68" width="3.75" shape="129.84,88.11,20.00 153.95,107.08,20.00"/>
    <lane id=":4_1_1" index="1" disallow="pedestrian tram rail_urban rail rail_electric rail_fast ship" speed="22.22" length="30.68" width="3.75" shape="127.52,91.05,20.00 151.63,110.03,20.00"/>
    <lane id=":4_1_2" index="2" disallow="pedestrian tram rail_urban rail rail_electric rail_fast ship" speed="22.22" length="30.68" width="3.75" shape="125.20,94.00,20.00 149.31,112.98,20.00"/>
  </edge>
  <edge id=":5_0" function="internal">
    <lane id=":5_0_0" index="0" disallow="pedestrian tram rail_urban rail rail_electric rail_fast ship" speed="16.67" length="56.43" width="3.75" shape="695.50,512.63,20.00 708.06,519.74,20.00 723.66,527.72,20.00 737.76,534.53,20.00 745.82,538.11,20.00"/>
  </edge>
  <edge id=":5_1" function="internal">
    <lane id=":5_1_0" index="0" disallow="pedestrian tram rail_urban rail rail_electric rail_fast ship" speed="22.22" length="56.55" width="3.75" shape="695.50,512.63,20.00 743.71,542.02,20.00"/>
    <lane id=":5_1_1" index="1" disallow="pedestrian tram rail_urban rail rail_electric rail_fast ship" speed="22.22" length="56.55" width="3.75" shape="693.51,515.81,20.00 741.79,545.24,20.00"/>
    <lane id=":5_1_2" index="2" disallow="pedestrian tram rail_urban rail rail_electric rail_fast ship" speed="22.22" length="56.55" width="3.75" shape="691.52,518.99,20.00 739.87,548.47,20.00"/>
  </edge>
  <edge id=":6_0" function="internal">
    <lane id=":6_0_0" index="0" disallow="pedestrian tram rail_urban rail rail_electric rail_fast ship" speed="18.06" length="46.70" width="3.75" shape="910.20,661.55,20.00 898.59,655.93,19.95 885.55,650.36,19.89 874.12,645.80,19.85 867.28,643.22,19.82"/>
  </edge>
  <edge id=":6_1" function="internal">
    <lane id=":6_1_0" index="0" disallow="pedestrian tram rail_urban rail rail_electric rail_fast ship" speed="22.22" length="46.83" width="3.75" shape="910.20,661.55,20.00 869.01,639.23,20.00"/>
    <lane id=":6_1_1" index="1" disallow="pedestrian tram rail_urban rail rail_electric rail_fast ship" speed="22.22" length="46.83" width="3.75" shape="911.98,658.25,20.00 870.80,635.94,20.00"/>
    <lane id=":6_1_2" index="2" disallow="pedestrian tram rail_urban rail rail_electric rail_fast ship" speed="22.22" length="46.83" width="3.75" shape="913.76,654.95,20.00 872.60,632.65,20.00"/>
  </edge>
  <edge id=":7_0" function="internal">
    <lane id=":7_0_0" index="0" disallow="pedestrian tram rail_urban rail rail_electric rail_fast ship" speed="15.97" length="34.58" width="3.75" shape="498.83,402.34,20.00 489.70,396.18,20.00 480.99,391.27,20.00 473.64,387.75,20.00 468.60,385.77,20.00"/>
  </edge>
  <edge id=":7_1" function="internal">
    <lane id=":7_1_0" index="0" disallow="pedestrian tram rail_urban rail rail_electric rail_fast ship" speed="22.22" length="34.95" width="3.75" shape="498.83,402.34,20.00 470.86,381.35,20.00"/>
    <lane id=":7_1_1" index="1" disallow="pedestrian tram rail_urban rail rail_electric rail_fast ship" speed="22.22" length="34.95" width="3.75" shape="501.07,399.34,20.00 473.12,378.36,20.00"/>
    <lane id=":7_1_2" index="2" disallow="pedestrian tram rail_urban rail rail_electric rail_fast ship" speed="22.22" length="34.95" width="3.75" shape="503.32,396.33,20.00 475.38,375.36,20.00"/>
  </edge>
  <edge id=":8_0" function="internal">
    <lane id=":8_0_0" index="0" disallow="pedestrian tram rail_urban rail rail_electric rail_fast ship" speed="15.97" length="70.31" width="3.75" shape="966.04,660.67,20.00 975.26,666.65,20.00 992.60,677.43,20.00 1011.68,688.97,20.00 1026.10,697.19,20.00"/>
  </edge>
  <edge id=":8_1" function="internal">
    <lane id=":8_1_0" index="0" disallow="pedestrian tram rail_urban rail rail_electric rail_fast ship" speed="22.22" length="69.96" width="3.75" shape="964.22,664.62,20.00 1026.10,697.19,20.00"/>
    <lane id=":8_1_1" index="1" disallow="pedestrian tram rail_urban rail rail_electric rail_fast ship" speed="22.22" length="69.96" width="3.75" shape="962.46,667.93,20.00 1024.37,700.52,20.00"/>
    <lane id=":8_1_2" index="2" disallow="pedestrian tram rail_urban rail rail_electric rail_fast ship" speed="22.22" length="69.96" width="3.75" shape="960.70,671.25,20.00 1022.63,703.84,20.00"/>
  </edge>
  <edge id=":9_0" function="internal">
    <lane id=":9_0_0" index="0" disallow="pedestrian tram rail_urban rail rail_electric rail_fast ship" speed="18.06" length="128.13" width="3.75" shape="302.08,551.06,0.00 176.17,574.81"/>
  </edge>
  <edge id=":9_1" function="internal">
    <lane id=":9_1_0" index="0" disallow="pedestrian tram rail_urban rail rail_electric rail_fast ship" speed="22.22" length="127.91" width="3.75" shape="301.09,547.12 176.17,574.81"/>
    <lane id=":9_1_1" index="1" disallow="pedestrian tram rail_urban rail rail_electric rail_fast ship" speed="22.22" length="127.91" width="3.75" shape="300.26,543.46 175.38,571.15"/>
    <lane id=":9_1_2" index="2" disallow="pedestrian tram rail_urban rail rail_electric rail_fast ship" speed="22.22" length="127.91" width="3.75" shape="299.42,539.80 174.58,567.48"/>
  </edge>
  <edge id=":9.8_0" function="internal">
    <lane id=":9.8_0_0" index="0" disallow="pedestrian tram rail_urban rail rail_electric rail_fast ship" speed="22.22" length="0.30" width="3.75" shape="624.24,438.44 624.52,438.35"/>
    <lane id=":9.8_0_1" index="1" disallow="pedestrian tram rail_urban rail rail_electric rail_fast ship" speed="22.22" length="0.30" width="3.75" shape="625.43,442.00 625.71,441.90"/>
    <lane id=":9.8_0_2" index="2" disallow="pedestrian tram rail_urban rail rail_electric rail_fast ship" speed="22.22" length="0.30" width="3.75" shape="626.61,445.56 626.90,445.46"/>
  </edge>
  <edge id="-0" from="0.begin" to="0" priority="1" type="driving" shape="1201.74,203.56 1200.51,204.09 1199.25,204.64 1197.98,205.20 1196.67,205.77 1195.35,206.35 1194.00,206.94 1192.63,207.55 1191.24,208.17 1189.82,208.79 1188.39,209.43 1186.93,210.09 1185.45,210.75 1183.94,211.42 1182.42,212.11 1180.87,212.80 1179.31,213.51 1177.72,214.23 1176.11,214.96 1174.48,215.70 1172.83,216.45 1171.16,217.21 1169.47,217.98 1167.76,218.76 1166.03,219.55 1164.28,220.35 1162.51,221.16 1160.72,221.98 1158.92,222.81 1157.09,223.65 1155.24,224.50 1153.38,225.36 1151.49,226.23 1149.59,227.11 1147.67,228.00 1145.73,228.89 1143.78,229.80 1141.80,230.71 1139.81,231.63 1137.80,232.56 1135.77,233.50 1133.73,234.45 1131.66,235.41 1129.59,236.37 1127.49,237.35 1125.38,238.33 1123.25,239.32 1121.10,240.31 1118.94,241.32 1116.77,242.33 1114.57,243.35 1112.37,244.38 1110.14,245.41 1107.90,246.46 1105.65,247.51 1103.38,248.56 1101.09,249.63 1098.79,250.70">
    <lane id="-0_0" index="0" disallow="pedestrian tram rail_urban rail rail_electric rail_fast ship" speed="22.22" length="109.07" width="3.75" shape="1205.47,212.17 1204.24,212.70 1203.00,213.24 1201.73,213.79 1200.44,214.35 1199.12,214.93 1197.79,215.52 1196.42,216.12 1195.04,216.73 1193.63,217.36 1192.21,218.00 1190.75,218.64 1189.28,219.30 1187.79,219.98 1186.27,220.66 1184.73,221.35 1183.17,222.06 1181.59,222.77 1179.98,223.50 1178.36,224.23 1176.72,224.98 1175.05,225.74 1173.37,226.51 1171.66,227.29 1169.93,228.08 1168.19,228.87 1166.42,229.68 1164.64,230.50 1162.83,231.33 1161.01,232.17 1159.16,233.02 1157.30,233.88 1155.42,234.74 1153.52,235.62 1151.60,236.51 1149.67,237.40 1147.71,238.30 1145.74,239.22 1143.75,240.14 1141.74,241.07 1139.71,242.01 1137.67,242.96 1135.61,243.91 1133.53,244.88 1131.44,245.85 1129.33,246.83 1127.20,247.82 1125.06,248.81 1122.90,249.82 1120.72,250.83 1118.53,251.85 1116.32,252.88 1114.10,253.91 1111.86,254.96 1109.60,256.00 1107.34,257.06 1106.39,257.50" type="driving"/>
    <lane id="-0_1" index="1" disallow="pedestrian tram rail_urban rail rail_electric rail_fast ship" speed="22.22" length="109.07" width="3.75" shape="1203.98,208.72 1202.75,209.26 1201.50,209.80 1200.23,210.35 1198.93,210.92 1197.61,211.50 1196.27,212.09 1194.91,212.69 1193.52,213.31 1192.11,213.93 1190.68,214.57 1189.22,215.22 1187.75,215.88 1186.25,216.55 1184.73,217.24 1183.19,217.93 1181.62,218.64 1180.04,219.35 1178.44,220.08 1176.81,220.82 1175.16,221.57 1173.50,222.33 1171.81,223.10 1170.10,223.88 1168.37,224.67 1166.63,225.47 1164.86,226.28 1163.07,227.09 1161.27,227.92 1159.44,228.76 1157.60,229.61 1155.73,230.47 1153.85,231.34 1151.95,232.22 1150.03,233.10 1148.09,234.00 1146.14,234.90 1144.16,235.81 1142.17,236.74 1140.16,237.67 1138.14,238.61 1136.09,239.55 1134.03,240.51 1131.95,241.47 1129.86,242.45 1127.75,243.43 1125.62,244.42 1123.48,245.41 1121.32,246.42 1119.14,247.43 1116.95,248.45 1114.74,249.48 1112.51,250.51 1110.28,251.56 1108.02,252.61 1105.75,253.66 1104.80,254.10" type="driving"/>
    <lane id="-0_2" index="2" disallow="pedestrian tram rail_urban rail rail_electric rail_fast ship" speed="22.22" length="109.07" width="3.75" shape="1202.49,205.28 1201.26,205.81 1200.00,206.36 1198.73,206.92 1197.43,207.49 1196.10,208.07 1194.76,208.66 1193.39,209.26 1192.00,209.88 1190.59,210.51 1189.15,211.15 1187.69,211.80 1186.21,212.46 1184.71,213.13 1183.19,213.82 1181.65,214.51 1180.08,215.22 1178.49,215.94 1176.89,216.67 1175.26,217.41 1173.61,218.15 1171.94,218.91 1170.25,219.68 1168.54,220.46 1166.81,221.26 1165.06,222.06 1163.30,222.87 1161.51,223.69 1159.70,224.52 1157.87,225.36 1156.03,226.21 1154.16,227.06 1152.28,227.93 1150.38,228.81 1148.46,229.70 1146.52,230.59 1144.56,231.50 1142.59,232.41 1140.60,233.33 1138.59,234.26 1136.56,235.20 1134.51,236.15 1132.45,237.11 1130.37,238.07 1128.28,239.05 1126.17,240.03 1124.04,241.02 1121.89,242.01 1119.73,243.02 1117.56,244.03 1115.36,245.05 1113.16,246.08 1110.93,247.11 1108.69,248.16 1106.44,249.21 1104.17,250.26 1103.22,250.70" type="driving"/>
  </edge>
  <edge id="-1" from="0" to="15" priority="1" type="driving" shape="1098.79,250.70 1097.29,251.40 1095.79,252.10 1094.28,252.80 1092.76,253.51 1091.24,254.22 1089.71,254.93 1088.17,255.65 1086.63,256.36 1085.08,257.08 1083.53,257.81 1081.97,258.53 1080.40,259.26 1078.83,259.99 1077.26,260.72 1075.68,261.46 1074.09,262.20 1072.50,262.94 1070.90,263.68 1069.30,264.43 1067.69,265.18 1066.08,265.93 1064.46,266.68 1062.84,267.43 1061.21,268.19 1059.57,268.95 1057.93,269.71 1056.29,270.48 1054.64,271.24 1052.99,272.01 1051.33,272.78 1049.66,273.55 1047.99,274.33 1046.32,275.10 1044.64,275.88 1042.96,276.66 1041.27,277.44 1039.58,278.23 1037.89,279.01 1036.18,279.80 1034.48,280.59 1032.77,281.38 1031.05,282.18 1029.34,282.97 1027.61,283.77 1025.89,284.57 1024.16,285.37 1022.42,286.17 1020.68,286.97 1018.94,287.78 1017.19,288.59 1015.44,289.39 1013.68,290.20 1011.92,291.01 1010.16,291.83 1008.39,292.64 1006.62,293.46 1004.85,294.27 1003.07,295.09 1001.29,295.91 999.50,296.73 997.71,297.55 995.92,298.38 994.12,299.20 992.33,300.03 990.52,300.86 988.72,301.68 986.91,302.51 985.09,303.34 983.28,304.17 981.46,305.01 979.64,305.84 977.81,306.68 975.98,307.51 974.15,308.35 972.32,309.18 970.48,310.02 968.64,310.86 966.80,311.70 964.95,312.54 963.11,313.38 961.25,314.23 959.40,315.07 957.55,315.91 955.69,316.76 953.83,317.60 951.96,318.45 950.10,319.29 948.23,320.14 946.36,320.99 944.48,321.83 942.61,322.68 940.73,323.53 938.85,324.38 936.97,325.23 935.08,326.08 933.20,326.93 931.31,327.78 929.42,328.63 927.53,329.48 925.63,330.33 923.74,331.18 921.84,332.04 919.94,332.89 918.04,333.74 916.14,334.59 914.23,335.44 912.33,336.30 910.42,337.15 908.51,338.00 906.60,338.85 904.69,339.70 902.78,340.56 900.86,341.41 898.95,342.26 897.03,343.11 895.11,343.96 893.19,344.81 891.27,345.67 889.35,346.52 887.43,347.37 885.51,348.22 883.58,349.07 881.66,349.92 879.73,350.77 877.81,351.61 875.88,352.46 873.95,353.31 872.02,354.16 870.09,355.00 868.16,355.85 866.23,356.70 864.30,357.54 862.37,358.39 860.44,359.23 858.50,360.07 856.57,360.91 854.64,361.76 852.71,362.60 850.77,363.44 848.84,364.27 846.91,365.11 844.97,365.95 843.04,366.79 841.10,367.62 839.17,368.46 837.24,369.29 835.30,370.12 833.37,370.95 831.44,371.79 829.51,372.61 827.57,373.44 825.64,374.27 823.71,375.10 821.78,375.92 819.85,376.74 817.92,377.57 815.99,378.39 814.06,379.21 812.13,380.03 810.21,380.84 808.28,381.66 806.35,382.47 804.43,383.29 802.50,384.10 800.58,384.91 798.66,385.72 796.74,386.52 794.82,387.33 792.90,388.13 790.98,388.93 789.06,389.73 787.15,390.53 785.23,391.33 783.32,392.12 781.41,392.92 779.50,393.71 777.59,394.50 775.68,395.29 773.78,396.07 771.87,396.86 769.97,397.64 768.07,398.42 766.17,399.20 764.27,399.98 762.38,400.75 760.48,401.52 758.59,402.29 756.70,403.06 754.81,403.83 752.93,404.59 751.04,405.35 749.16,406.11 747.28,406.87 745.41,407.63 743.53,408.38">