<?xml version='1.0' encoding='UTF-8'?>
<!-- generated on 2022-09-05 15:13:11 by Eclipse SUMO netconvert Version 1.13.0
<configuration xmlns:xsi="http://www.w3.org/2001/XMLSchema-instance" xsi:noNamespaceSchemaLocation="http://sumo.dlr.de/xsd/netconvertConfiguration.xsd">

    <input>
        <opendrive-files value="map\classification\12\76313244\76313244.xodr"/>
    </input>

    <output>
        <output-file value="C:\Users\LinGe\AppData\Local\Temp\tmpabystzcm\76313244.net.xml"/>
    </output>

    <processing>
        <geometry.max-grade.fix value="false"/>
    </processing>

    <tls_building>
        <tls.left-green.time value="0"/>
    </tls_building>

    <junctions>
        <rectangular-lane-cut value="true"/>
    </junctions>

    <report>
        <aggregate-warnings value="5"/>
    </report>

</configuration>
-->
<net xmlns:xsi="http://www.w3.org/2001/XMLSchema-instance" version="1.9" junctionCornerDetail="5" rectangularLaneCut="true" limitTurnSpeed="5.50" xsi:noNamespaceSchemaLocation="http://sumo.dlr.de/xsd/net_file.xsd">
  <location netOffset="1.56,101.26" convBoundary="0.00,0.00,1229.03,1302.51" origBoundary="-1.56,-101.26,1227.47,1201.26" projParameter="!"/>
  <type id="bidirectional" priority="1" speed="1.39" disallow="pedestrian tram rail_urban rail rail_electric rail_fast ship" width="3.65"/>
  <type id="border" priority="0" speed="1.39" disallow="all" discard="1" width="0.10"/>
  <type id="driving" priority="1" speed="13.89" disallow="pedestrian tram rail_urban rail rail_electric rail_fast ship" width="3.65"/>
  <type id="entry" priority="1" speed="22.22" disallow="pedestrian tram rail_urban rail rail_electric rail_fast ship" width="3.65"/>
  <type id="exit" priority="1" speed="22.22" disallow="pedestrian tram rail_urban rail rail_electric rail_fast ship" width="3.65"/>
  <type id="median" priority="0" speed="1.39" disallow="all" discard="1" width="0.10"/>
  <type id="mwyEntry" priority="1" speed="22.22" allow="private emergency authority army vip passenger hov taxi bus coach delivery truck trailer motorcycle evehicle custom1 custom2" width="3.65"/>
  <type id="mwyExit" priority="1" speed="22.22" allow="private emergency authority army vip passenger hov taxi bus coach delivery truck trailer motorcycle evehicle custom1 custom2" width="3.65"/>
  <type id="none" priority="0" speed="1.39" disallow="all" discard="1" width="1.00"/>
  <type id="offRamp" priority="1" speed="22.22" allow="private emergency authority army vip passenger hov taxi bus coach delivery truck trailer motorcycle evehicle custom1 custom2" width="3.65"/>
  <type id="onRamp" priority="1" speed="22.22" allow="private emergency authority army vip passenger hov taxi bus coach delivery truck trailer motorcycle evehicle custom1 custom2" width="3.65"/>
  <type id="parking" priority="1" speed="1.39" disallow="pedestrian tram rail_urban rail rail_electric rail_fast ship" width="2.50"/>
  <type id="rail" priority="3" speed="33.33" allow="rail_urban rail rail_electric rail_fast" width="3.65"/>
  <type id="restricted" priority="0" speed="13.89" disallow="all" width="3.65"/>
  <type id="roadWorks" priority="0" speed="1.39" allow="authority" width="3.65"/>
  <type id="shoulder" priority="0" speed="1.39" disallow="all" discard="1" width="1.00"/>
  <type id="special1" priority="1" speed="22.22" allow="custom1" discard="1" width="3.65"/>
  <type id="special2" priority="1" speed="22.22" allow="custom2" discard="1" width="3.65"/>
  <type id="special3" priority="1" speed="22.22" allow="custom1 custom2" discard="1" width="3.65"/>
  <type id="stop" priority="1" speed="13.89" disallow="pedestrian tram rail_urban rail rail_electric rail_fast ship" width="3.65"/>
  <type id="tram" priority="2" speed="13.89" allow="tram" width="3.65"/>
  <edge id=":0_0" function="internal">
    <lane id=":0_0_0" index="0" disallow="pedestrian tram rail_urban rail rail_electric rail_fast ship" speed="22.22" length="63.21" width="3.75" shape="1008.18,296.04 996.81,306.56 982.63,320.46 969.98,333.24 963.16,340.38"/>
  </edge>
  <edge id=":0_1" function="internal">
    <lane id=":0_1_0" index="0" disallow="pedestrian tram rail_urban rail rail_electric rail_fast ship" speed="22.22" length="63.36" width="3.75" shape="1008.18,296.04 960.12,337.34"/>
    <lane id=":0_1_1" index="1" disallow="pedestrian tram rail_urban rail rail_electric rail_fast ship" speed="22.22" length="63.36" width="3.75" shape="1005.73,293.20 957.68,334.49"/>
    <lane id=":0_1_2" index="2" disallow="pedestrian tram rail_urban rail rail_electric rail_fast ship" speed="22.22" length="63.36" width="3.75" shape="1003.29,290.35 955.24,331.65"/>
  </edge>
  <edge id=":1_0" function="internal">
    <lane id=":1_0_0" index="0" disallow="pedestrian tram rail_urban rail rail_electric rail_fast ship" speed="16.67" length="26.19" width="3.75" shape="94.71,935.78 102.18,931.06,0.01 107.75,926.51,0.02 111.77,922.39,0.03 114.58,919.00,0.04"/>
  </edge>
  <edge id=":1_1" function="internal">
    <lane id=":1_1_0" index="0" disallow="pedestrian tram rail_urban rail rail_electric rail_fast ship" speed="22.22" length="26.51" width="3.75" shape="94.71,935.78 117.91,922.96"/>
    <lane id=":1_1_1" index="1" disallow="pedestrian tram rail_urban rail rail_electric rail_fast ship" speed="22.22" length="26.51" width="3.75" shape="96.52,939.07 119.72,926.24"/>
    <lane id=":1_1_2" index="2" disallow="pedestrian tram rail_urban rail rail_electric rail_fast ship" speed="22.22" length="26.51" width="3.75" shape="98.34,942.35 121.54,929.52"/>
  </edge>
  <edge id=":14.13_0" function="internal">
    <lane id=":14.13_0_0" index="0" disallow="pedestrian tram rail_urban rail rail_electric rail_fast ship" speed="22.22" length="0.30" width="3.75" shape="593.99,665.85,20.00 593.80,665.62,20.00"/>
    <lane id=":14.13_0_1" index="1" disallow="pedestrian tram rail_urban rail rail_electric rail_fast ship" speed="22.22" length="0.30" width="3.75" shape="596.91,663.49,20.00 596.72,663.26,20.00"/>
    <lane id=":14.13_0_2" index="2" disallow="pedestrian tram rail_urban rail rail_electric rail_fast ship" speed="22.22" length="0.30" width="3.75" shape="599.82,661.14,20.00 599.63,660.90,20.00"/>
  </edge>
  <edge id=":17.16_0" function="internal">
    <lane id=":17.16_0_0" index="0" disallow="pedestrian tram rail_urban rail rail_electric rail_fast ship" speed="22.22" length="0.30" width="3.75" shape="862.69,587.43,6.86 862.68,587.73,6.87"/>
  </edge>
  <edge id=":19.18_0" function="internal">
    <lane id=":19.18_0_0" index="0" disallow="pedestrian tram rail_urban rail rail_electric rail_fast ship" speed="19.44" length="0.30" width="3.75" shape="1198.56,782.58,10.77 1198.70,782.32,10.77"/>
  </edge>
  <edge id=":2_0" function="internal">
    <lane id=":2_0_0" index="0" disallow="pedestrian tram rail_urban rail rail_electric rail_fast ship" speed="20.83" length="83.14" width="3.75" shape="627.31,671.25,20.00 680.62,735.05,19.83"/>
  </edge>
  <edge id=":2_1" function="internal">
    <lane id=":2_1_0" index="0" disallow="pedestrian tram rail_urban rail rail_electric rail_fast ship" speed="22.22" length="83.40" width="3.75" shape="627.31,671.25,20.00 677.59,737.92,20.00"/>
    <lane id=":2_1_1" index="1" disallow="pedestrian tram rail_urban rail rail_electric rail_fast ship" speed="22.22" length="83.40" width="3.75" shape="624.35,673.56,20.00 674.57,740.14,20.00"/>
    <lane id=":2_1_2" index="2" disallow="pedestrian tram rail_urban rail rail_electric rail_fast ship" speed="22.22" length="83.40" width="3.75" shape="621.40,675.86,20.00 671.55,742.36,20.00"/>
  </edge>
  <edge id=":21.20_0" function="internal">
    <lane id=":21.20_0_0" index="0" disallow="pedestrian tram rail_urban rail rail_electric rail_fast ship" speed="11.11" length="0.30" width="3.75" shape="208.53,488.60,10.34 208.52,488.30,10.35"/>
  </edge>
  <edge id=":23.22_0" function="internal">
    <lane id=":23.22_0_0" index="0" disallow="pedestrian tram rail_urban rail rail_electric rail_fast ship" speed="8.33" length="0.29" width="3.75" shape="83.52,283.40,9.14 83.54,283.11,9.14"/>
  </edge>
  <edge id=":3_0" function="internal">
    <lane id=":3_0_0" index="0" disallow="pedestrian tram rail_urban rail rail_electric rail_fast ship" speed="15.28" length="37.71" width="3.75" shape="968.17,1198.42,20.00 961.29,1189.21,20.00 954.06,1180.82,19.99 947.75,1174.09,19.99 943.61,1169.86,19.99"/>
  </edge>
  <edge id=":3_1" function="internal">
    <lane id=":3_1_0" index="0" disallow="pedestrian tram rail_urban rail rail_electric rail_fast ship" speed="22.22" length="37.80" width="3.75" shape="968.17,1198.42,20.00 947.07,1167.06,20.00"/>
    <lane id=":3_1_1" index="1" disallow="pedestrian tram rail_urban rail rail_electric rail_fast ship" speed="22.22" length="37.80" width="3.75" shape="971.28,1196.32,20.00 950.18,1164.97,20.00"/>
    <lane id=":3_1_2" index="2" disallow="pedestrian tram rail_urban rail rail_electric rail_fast ship" speed="22.22" length="37.80" width="3.75" shape="974.39,1194.23,20.00 953.29,1162.87,20.00"/>
  </edge>
  <edge id=":3.2_0" function="internal">
    <lane id=":3.2_0_0" index="0" disallow="pedestrian tram rail_urban rail rail_electric rail_fast ship" speed="22.22" length="0.30" width="3.75" shape="498.93,717.60 498.69,717.78"/>
    <lane id=":3.2_0_1" index="1" disallow="pedestrian tram rail_urban rail rail_electric rail_fast ship" speed="22.22" length="0.30" width="3.75" shape="496.72,714.57 496.48,714.74"/>
    <lane id=":3.2_0_2" index="2" disallow="pedestrian tram rail_urban rail rail_electric rail_fast ship" speed="22.22" length="0.30" width="3.75" shape="494.52,711.53 494.28,711.71"/>
  </edge>
  <edge id=":4_0" function="internal">
    <lane id=":4_0_0" index="0" disallow="pedestrian tram rail_urban rail rail_electric rail_fast ship" speed="22.22" length="62.91" width="3.75" shape="968.40,1150.29,19.84 973.06,1158.94,19.86 981.80,1174.54,19.91 991.70,1191.63,19.96 999.84,1204.76,20.00"/>
  </edge>
  <edge id=":4_1" function="internal">
    <lane id=":4_1_0" index="0" disallow="pedestrian tram rail_urban rail rail_electric rail_fast ship" speed="22.22" length="62.53" width="3.75" shape="964.92,1152.88,20.00 999.84,1204.76,20.00"/>
    <lane id=":4_1_1" index="1" disallow="pedestrian tram rail_urban rail rail_electric rail_fast ship" speed="22.22" length="62.53" width="3.75" shape="961.81,1154.97,20.00 996.72,1206.85,20.00"/>
    <lane id=":4_1_2" index="2" disallow="pedestrian tram rail_urban rail rail_electric rail_fast ship" speed="22.22" length="62.53" width="3.75" shape="958.70,1157.07,20.00 993.61,1208.95,20.00"/>
  </edge>
  <edge id=":5_0" function="internal">
    <lane id=":5_0_0" index="0" disallow="pedestrian tram rail_urban rail rail_electric rail_fast ship" speed="20.83" length="82.24" width="3.75" shape="757.98,514.87,0.14 747.57,522.41,0.12 727.86,537.01,0.08 706.78,552.89,0.03 692.22,564.25"/>
  </edge>
  <edge id=":5_1" function="internal">
    <lane id=":5_1_0" index="0" disallow="pedestrian tram rail_urban rail rail_electric rail_fast ship" speed="22.22" length="81.93" width="3.75" shape="755.15,511.75 692.22,564.25"/>
    <lane id=":5_1_1" index="1" disallow="pedestrian tram rail_urban rail rail_electric rail_fast ship" speed="22.22" length="81.93" width="3.75" shape="752.74,508.88 689.82,561.36"/>
    <lane id=":5_1_2" index="2" disallow="pedestrian tram rail_urban rail rail_electric rail_fast ship" speed="22.22" length="81.93" width="3.75" shape="750.33,506.01 687.43,558.48"/>
  </edge>
  <edge id=":6_0" function="internal">
    <lane id=":6_0_0" index="0" disallow="pedestrian tram rail_urban rail rail_electric rail_fast ship" speed="16.67" length="56.89" width="3.75" shape="96.50,125.85,20.00 91.20,118.71,20.00 81.50,106.22,20.00 70.40,92.46,20.00 60.90,81.49,20.00"/>
  </edge>
  <edge id=":6_1" function="internal">
    <lane id=":6_1_0" index="0" disallow="pedestrian tram rail_urban rail rail_electric rail_fast ship" speed="22.22" length="56.47" width="3.75" shape="99.56,122.66,20.00 60.90,81.49,20.00"/>
    <lane id=":6_1_1" index="1" disallow="pedestrian tram rail_urban rail rail_electric rail_fast ship" speed="22.22" length="56.47" width="3.75" shape="102.30,120.09,20.00 63.64,78.93,20.00"/>
    <lane id=":6_1_2" index="2" disallow="pedestrian tram rail_urban rail rail_electric rail_fast ship" speed="22.22" length="56.47" width="3.75" shape="105.03,117.52,20.00 66.37,76.36,20.00"/>
  </edge>
  <edge id=":6.5_0" function="internal">
    <lane id=":6.5_0_0" index="0" disallow="pedestrian tram rail_urban rail rail_electric rail_fast ship" speed="22.22" length="0.30" width="3.75" shape="485.31,699.37 485.55,699.20"/>
    <lane id=":6.5_0_1" index="1" disallow="pedestrian tram rail_urban rail rail_electric rail_fast ship" speed="22.22" length="0.30" width="3.75" shape="487.51,702.41 487.76,702.23"/>
    <lane id=":6.5_0_2" index="2" disallow="pedestrian tram rail_urban rail rail_electric rail_fast ship" speed="22.22" length="0.30" width="3.75" shape="489.72,705.44 489.96,705.26"/>
  </edge>
  <edge id=":7_0" function="internal">
    <lane id=":7_0_0" index="0" disallow="pedestrian tram rail_urban rail rail_electric rail_fast ship" speed="15.28" length="25.85" width="3.75" shape="999.73,265.27,0.01 1003.99,264.21,0.01 1009.33,262.23,0.00 1015.57,258.89,0.00 1022.54,253.71"/>
  </edge>
  <edge id=":7_1" function="internal">
    <lane id=":7_1_0" index="0" disallow="pedestrian tram rail_urban rail rail_electric rail_fast ship" speed="22.22" length="24.49" width="3.75" shape="1003.96,269.68 1022.54,253.71"/>
    <lane id=":7_1_1" index="1" disallow="pedestrian tram rail_urban rail rail_electric rail_fast ship" speed="22.22" length="24.49" width="3.75" shape="1006.41,272.52 1024.98,256.55"/>
    <lane id=":7_1_2" index="2" disallow="pedestrian tram rail_urban rail rail_electric rail_fast ship" speed="22.22" length="24.49" width="3.75" shape="1008.85,275.36 1027.42,259.40"/>
  </edge>
  <edge id=":9.8_0" function="internal">
    <lane id=":9.8_0_0" index="0" disallow="pedestrian tram rail_urban rail rail_electric rail_fast ship" speed="22.22" length="0.30" width="3.75" shape="611.50,651.32,20.00 611.69,651.56,20.00"/>
    <lane id=":9.8_0_1" index="1" disallow="pedestrian tram rail_urban rail rail_electric rail_fast ship" speed="22.22" length="0.30" width="3.75" shape="608.58,653.68,20.00 608.77,653.91,20.00"/>
    <lane id=":9.8_0_2" index="2" disallow="pedestrian tram rail_urban rail rail_electric rail_fast ship" speed="22.22" length="0.30" width="3.75" shape="605.67,656.03,20.00 605.85,656.26,20.00"/>
  </edge>
  <edge id="-0" from="0.begin" to="0" priority="1" type="driving" shape="1102.73,202.87 1101.89,203.57 1101.03,204.29 1100.14,205.03 1099.24,205.79 1098.31,206.57 1097.36,207.37 1096.38,208.19 1095.39,209.03 1094.37,209.88 1093.33,210.76 1092.27,211.66 1091.19,212.57 1090.09,213.50 1088.97,214.45 1087.82,215.42 1086.66,216.41 1085.47,217.42 1084.27,218.44 1083.04,219.48 1081.80,220.54 1080.53,221.62 1079.24,222.72 1077.94,223.83 1076.61,224.96 1075.27,226.11 1073.91,227.27 1072.52,228.45 1071.12,229.65 1069.70,230.86 1068.26,232.09 1066.80,233.34 1065.33,234.60 1063.83,235.88 1062.32,237.18 1060.79,238.49 1059.24,239.81 1057.67,241.16 1056.09,242.51 1054.49,243.89 1052.87,245.28 1051.23,246.68 1049.58,248.10 1047.91,249.53 1046.23,250.98 1044.52,252.44 1042.80,253.92 1041.07,255.41 1039.31,256.91 1037.55,258.43 1035.76,259.96 1033.96,261.51 1032.15,263.07 1030.32,264.64 1028.47,266.23 1026.61,267.83 1024.73,269.44 1022.84,271.07 1020.93,272.71 1019.01,274.36 1017.08,276.02 1015.13,277.70 1013.16,279.39 1011.19,281.09 1009.19,282.80 1007.19,284.53 1005.17,286.26 1003.13,288.01 1001.09,289.77 999.03,291.54">
    <lane id="-0_0" index="0" disallow="pedestrian tram rail_urban rail rail_electric rail_fast ship" speed="22.22" length="132.35" width="3.75" shape="1108.73,210.08 1107.90,210.77 1107.04,211.49 1106.16,212.22 1105.26,212.98 1104.33,213.75 1103.39,214.55 1102.42,215.36 1101.43,216.20 1100.41,217.05 1099.38,217.92 1098.32,218.82 1097.25,219.73 1096.15,220.66 1095.03,221.61 1093.89,222.57 1092.72,223.56 1091.54,224.56 1090.34,225.59 1089.11,226.63 1087.87,227.68 1086.61,228.76 1085.32,229.85 1084.02,230.96 1082.70,232.09 1081.35,233.24 1079.99,234.40 1078.61,235.58 1077.21,236.78 1075.79,237.99 1074.35,239.22 1072.90,240.46 1071.42,241.73 1069.93,243.00 1068.42,244.30 1066.89,245.61 1065.34,246.93 1063.77,248.28 1062.19,249.63 1060.59,251.00 1058.97,252.39 1057.34,253.79 1055.69,255.21 1054.02,256.64 1052.33,258.09 1050.63,259.55 1048.91,261.03 1047.17,262.52 1045.42,264.02 1043.66,265.54 1041.87,267.07 1040.07,268.62 1038.26,270.18 1036.43,271.75 1034.58,273.34 1032.72,274.94 1030.84,276.55 1028.95,278.18 1027.05,279.82 1025.12,281.47 1023.19,283.13 1021.24,284.81 1019.28,286.50 1017.30,288.20 1015.31,289.91 1013.30,291.63 1011.28,293.37 1009.25,295.12 1008.18,296.04" type="driving"/>
    <lane id="-0_1" index="1" disallow="pedestrian tram rail_urban rail rail_electric rail_fast ship" speed="22.22" length="132.35" width="3.75" shape="1106.33,207.20 1105.49,207.89 1104.64,208.61 1103.75,209.35 1102.85,210.10 1101.92,210.88 1100.98,211.68 1100.00,212.49 1099.01,213.33 1098.00,214.19 1096.96,215.06 1095.90,215.95 1094.82,216.87 1093.72,217.80 1092.60,218.75 1091.46,219.71 1090.30,220.70 1089.11,221.71 1087.91,222.73 1086.69,223.77 1085.44,224.83 1084.18,225.90 1082.89,227.00 1081.59,228.11 1080.26,229.24 1078.92,230.38 1077.56,231.55 1076.18,232.73 1074.78,233.92 1073.36,235.14 1071.92,236.37 1070.46,237.61 1068.98,238.88 1067.49,240.15 1065.98,241.45 1064.45,242.76 1062.90,244.09 1061.33,245.43 1059.75,246.78 1058.15,248.16 1056.53,249.55 1054.90,250.95 1053.24,252.37 1051.57,253.80 1049.89,255.25 1048.19,256.71 1046.47,258.18 1044.73,259.67 1042.98,261.18 1041.21,262.70 1039.43,264.23 1037.63,265.77 1035.81,267.33 1033.98,268.91 1032.14,270.49 1030.27,272.09 1028.40,273.71 1026.51,275.33 1024.60,276.97 1022.68,278.62 1020.74,280.29 1018.79,281.96 1016.83,283.65 1014.85,285.35 1012.86,287.07 1010.85,288.79 1008.83,290.53 1006.80,292.28 1005.73,293.20" type="driving"/>
    <lane id="-0_2" index="2" disallow="pedestrian tram rail_urban rail rail_electric rail_fast ship" speed="22.22" length="132.35" width="3.75" shape="1103.93,204.31 1103.09,205.01 1102.23,205.73 1101.35,206.47 1100.44,207.23 1099.51,208.01 1098.56,208.81 1097.59,209.62 1096.60,210.46 1095.58,211.32 1094.54,212.19 1093.48,213.09 1092.40,214.00 1091.30,214.93 1090.18,215.88 1089.03,216.85 1087.87,217.84 1086.69,218.85 1085.48,219.87 1084.26,220.91 1083.01,221.97 1081.74,223.05 1080.46,224.14 1079.15,225.26 1077.83,226.39 1076.49,227.53 1075.12,228.70 1073.74,229.88 1072.34,231.07 1070.92,232.29 1069.48,233.52 1068.02,234.76 1066.55,236.03 1065.05,237.31 1063.54,238.60 1062.01,239.91 1060.46,241.24 1058.89,242.58 1057.31,243.94 1055.71,245.31 1054.09,246.70 1052.46,248.10 1050.80,249.52 1049.13,250.95 1047.45,252.40 1045.74,253.86 1044.02,255.34 1042.29,256.83 1040.54,258.33 1038.77,259.85 1036.98,261.38 1035.18,262.93 1033.37,264.49 1031.54,266.06 1029.69,267.65 1027.83,269.25 1025.95,270.86 1024.06,272.49 1022.16,274.13 1020.23,275.78 1018.30,277.44 1016.35,279.12 1014.39,280.81 1012.41,282.51 1010.42,284.22 1008.41,285.95 1006.39,287.68 1004.36,289.43 1003.29,290.35" type="driving"/>
  </edge>
  <edge id="-1" from="0" to="5" priority="1" type="driving" shape="999.03,291.54 997.78,292.61 996.53,293.69 995.27,294.77 994.01,295.86 992.74,296.95 991.47,298.04 990.20,299.14 988.92,300.24 987.63,301.34 986.34,302.45 985.05,303.56 983.75,304.68 982.45,305.80 981.14,306.92 979.83,308.05 978.52,309.18 977.20,310.31 975.87,311.45 974.55,312.59 973.21,313.73 971.88,314.88 970.54,316.03 969.19,317.19 967.84,318.35 966.49,319.51 965.14,320.68 963.78,321.84 962.41,323.02 961.04,324.19 959.67,325.37 958.29,326.55 956.91,327.74 955.53,328.93 954.14,330.12 952.75,331.31 951.36,332.51 949.96,333.71 948.56,334.91 947.15,336.12 945.74,337.33 944.33,338.54 942.91,339.76 941.49,340.98 940.07,342.20 938.64,343.42 937.21,344.65 935.78,345.88 934.34,347.11 932.90,348.35 931.46,349.58 930.01,350.83 928.56,352.07 927.11,353.31 925.66,354.56 924.20,355.81 922.73,357.07 921.27,358.32 919.80,359.58 918.33,360.84 916.86,362.10 915.38,363.37 913.90,364.64 912.42,365.91 910.93,367.18 909.44,368.45 907.95,369.73 906.46,371.01 904.96,372.29 903.46,373.57 901.96,374.86 900.45,376.15 898.95,377.44 897.44,378.73 895.93,380.02 894.41,381.32 892.89,382.62 891.37,383.91 889.85,385.22 888.33,386.52 886.80,387.82 885.27,389.13 883.74,390.44 882.21,391.75 880.67,393.06 879.13,394.38 877.59,395.69 876.05,397.01 874.51,398.33 872.96,399.65 871.41,400.97 869.86,402.29 868.31,403.62 866.75,404.94 865.20,406.27 863.64,407.60 862.08,408.93 860.52,410.26 858.95,411.59 857.39,412.93 855.82,414.26 854.25,415.60 852.68,416.94 851.11,418.28 849.54,419.62 847.96,420.96 846.38,422.30 844.81,423.64 843.23,424.99 841.64,426.33 840.06,427.68 838.48,429.03 836.89,430.38 835.31,431.73 833.72,433.08 832.13,434.43 830.54,435.78 828.95,437.13 827.35,438.48 825.76,439.84 824.16,441.19 822.57,442.55 820.97,443.90 819.37,445.26 817.77,446.62 816.17,447.97 814.57,449.33 812.97,450.69 811.36,452.05 809.76,453.41 808.16,454.77 806.55,456.13 804.94,457.49 803.34,458.85 801.73,460.21 800.12,461.57 798.51,462.93 796.90,464.30 795.29,465.66 793.68,467.02 792.07,468.38 790.46,469.74 788.85,471.11 787.24,472.47 785.62,473.83 784.01,475.19 782.40,476.56 780.78,477.92 779.17,479.28 777.55,480.64 775.94,482.00 774.32,483.36 772.71,484.73 771.10,486.09 769.48,487.45 767.87,488.81 766.25,490.17 764.64,491.53 763.02,492.89 761.41,494.25 759.79,495.60 758.18,496.96 756.56,498.32 754.95,499.68 753.33,501.03 751.72,502.39 750.11,503.74 748.49,505.10 746.88,506.45 745.27,507.80 743.66,509.16 742.04,510.51 740.43,511.86 738.82,513.21 737.21,514.56 735.60,515.90 734.00,517.25 732.39,518.60 730.78,519.94 729.17,521.29 727.57,522.63 725.96,523.97 724.36,525.31 722.75,526.65 721.15,527.99 719.55,529.33 717.95,530.67 716.35,532.00 714.75,533.33 713.15,534.67 711.55,536.00 709.96,537.33 708.36,538.66 706.77,539.98 705.17,541.31 703.58,542.63 701.99,543.96 700.40,545.28 698.82,546.60 697.23,547.91 695.64,549.23 694.06,550.55 692.48,551.86 690.90,553.17 689.32,554.48">
    <lane id="-1_0" index="0" disallow="pedestrian tram rail_urban rail rail_electric rail_fast ship" speed="22.22" length="269.09" width="3.75" shape="960.12,337.34 958.86,338.43 957.46,339.62 956.07,340.82 954.66,342.03 953.26,343.23 951.85,344.44 950.44,345.66 949.02,346.87 947.60,348.09 946.18,349.31 944.75,350.54 943.32,351.76 941.88,352.99 940.45,354.23 939.01,355.46 937.56,356.70 936.12,357.94 934.67,359.19 933.21,360.43 931.76,361.68 930.30,362.93 928.84,364.18 927.37,365.44 925.90,366.70 924.43,367.96 922.96,369.22 921.48,370.49 920.00,371.76 918.51,373.03 917.03,374.30 915.54,375.58 914.05,376.85 912.55,378.13 911.06,379.41 909.56,380.70 908.05,381.98 906.55,383.27 905.04,384.56 903.53,385.85 902.02,387.15 900.50,388.44 898.99,389.74 897.47,391.04 895.94,392.34 894.42,393.65 892.89,394.95 891.36,396.26 889.83,397.57 888.30,398.88 886.76,400.19 885.22,401.50 883.68,402.82 882.14,404.14 880.59,405.46 879.05,406.78 877.50,408.10 875.95,409.42 874.39,410.75 872.84,412.07 871.28,413.40 869.72,414.73 868.16,416.06 866.60,417.39 865.04,418.73 863.47,420.06 861.90,421.40 860.33,422.74 858.76,424.07 857.19,425.41 855.61,426.75 854.04,428.10 852.46,429.44 850.88,430.78 849.30,432.13 847.72,433.47 846.14,434.82 844.55,436.17 842.97,437.52 841.38,438.87 839.79,440.22 838.20,441.57 836.61,442.92 835.02,444.28 833.42,445.63 831.83,446.98 830.23,448.34 828.63,449.69 827.04,451.05 825.44,452.41 823.84,453.77 822.24,455.12 820.63,456.48 819.03,457.84 817.43,459.20 815.82,460.56 814.22,461.92 812.61,463.28 811.00,464.64 809.40,466.00 807.79,467.37 806.18,468.73 804.57,470.09 802.96,471.45 801.35,472.82 799.74,474.18 798.12,475.54 796.51,476.90 794.90,478.27 793.29,479.63 791.67,480.99 790.06,482.36 788.44,483.72 786.83,485.08 785.21,486.45 783.60,487.81 781.98,489.17 780.37,490.53 778.75,491.89 777.14,493.26 775.52,494.62 773.90,495.98 772.29,497.34 770.67,498.70 769.06,500.06 767.44,501.42 765.83,502.78 764.21,504.14 762.59,505.50 760.98,506.85 759.36,508.21 757.75,509.57 756.14,510.92 755.15,511.75" type="driving"/>
    <lane id="-1_1" index="1" disallow="pedestrian tram rail_urban rail rail_electric rail_fast ship" speed="22.22" length="269.09" width="3.75" shape="957.68,334.49 956.42,335.58 955.02,336.78 953.62,337.98 952.22,339.18 950.82,340.39 949.41,341.60 947.99,342.81 946.58,344.03 945.16,345.25 943.73,346.47 942.31,347.69 940.88,348.92 939.44,350.15 938.01,351.38 936.57,352.62 935.12,353.85 933.68,355.10 932.23,356.34 930.77,357.58 929.32,358.83 927.86,360.08 926.39,361.34 924.93,362.59 923.46,363.85 921.99,365.11 920.52,366.38 919.04,367.64 917.56,368.91 916.07,370.18 914.59,371.45 913.10,372.73 911.61,374.00 910.11,375.28 908.62,376.56 907.12,377.85 905.62,379.13 904.11,380.42 902.60,381.71 901.09,383.00 899.58,384.30 898.07,385.59 896.55,386.89 895.03,388.19 893.51,389.49 891.98,390.80 890.46,392.10 888.93,393.41 887.39,394.72 885.86,396.03 884.32,397.34 882.79,398.65 881.25,399.97 879.70,401.29 878.16,402.60 876.61,403.92 875.06,405.25 873.51,406.57 871.96,407.90 870.40,409.22 868.85,410.55 867.29,411.88 865.73,413.21 864.17,414.54 862.60,415.87 861.04,417.21 859.47,418.54 857.90,419.88 856.33,421.22 854.76,422.56 853.18,423.90 851.61,425.24 850.03,426.58 848.45,427.93 846.87,429.27 845.29,430.62 843.71,431.97 842.12,433.31 840.54,434.66 838.95,436.01 837.36,437.36 835.77,438.71 834.18,440.06 832.59,441.42 830.99,442.77 829.40,444.13 827.80,445.48 826.21,446.84 824.61,448.19 823.01,449.55 821.41,450.91 819.81,452.26 818.21,453.62 816.61,454.98 815.00,456.34 813.40,457.70 811.79,459.06 810.19,460.42 808.58,461.78 806.97,463.14 805.36,464.50 803.76,465.87 802.15,467.23 800.54,468.59 798.93,469.95 797.31,471.32 795.70,472.68 794.09,474.04 792.48,475.40 790.87,476.77 789.25,478.13 787.64,479.49 786.02,480.85 784.41,482.22 782.80,483.58 781.18,484.94 779.57,486.30 777.95,487.67 776.34,489.03 774.72,490.39 773.10,491.75 771.49,493.11 769.87,494.47 768.26,495.83 766.64,497.19 765.03,498.55 763.41,499.91 761.80,501.27 760.18,502.63 758.57,503.98 756.95,505.34 755.34,506.70 753.72,508.05 752.74,508.88" type="driving"/>
    <lane id="-1_2" index="2" disallow="pedestrian tram rail_urban rail rail_electric rail_fast ship" speed="22.22" length="269.09" width="3.75" shape="955.24,331.65 953.97,332.74 952.58,333.93 951.18,335.13 949.78,336.34 948.37,337.54 946.96,338.75 945.55,339.97 944.13,341.18 942.71,342.40 941.29,343.62 939.86,344.85 938.43,346.07 937.00,347.30 935.56,348.53 934.12,349.77 932.68,351.01 931.23,352.25 929.78,353.49 928.33,354.74 926.88,355.99 925.42,357.24 923.95,358.49 922.49,359.75 921.02,361.00 919.55,362.26 918.08,363.53 916.60,364.79 915.12,366.06 913.64,367.33 912.15,368.60 910.66,369.88 909.17,371.16 907.68,372.43 906.18,373.72 904.68,375.00 903.18,376.28 901.67,377.57 900.17,378.86 898.66,380.15 897.14,381.45 895.63,382.74 894.11,384.04 892.59,385.34 891.07,386.64 889.55,387.94 888.02,389.25 886.49,390.56 884.96,391.87 883.42,393.18 881.89,394.49 880.35,395.80 878.81,397.12 877.27,398.43 875.72,399.75 874.18,401.07 872.63,402.39 871.08,403.72 869.53,405.04 867.97,406.37 866.41,407.70 864.86,409.03 863.30,410.36 861.73,411.69 860.17,413.02 858.60,414.35 857.04,415.69 855.47,417.03 853.90,418.37 852.33,419.70 850.75,421.04 849.18,422.39 847.60,423.73 846.02,425.07 844.44,426.42 842.86,427.76 841.28,429.11 839.69,430.46 838.11,431.80 836.52,433.15 834.93,434.50 833.34,435.86 831.75,437.21 830.16,438.56 828.57,439.91 826.97,441.27 825.38,442.62 823.78,443.98 822.18,445.33 820.58,446.69 818.98,448.05 817.38,449.40 815.78,450.76 814.18,452.12 812.58,453.48 810.97,454.84 809.37,456.20 807.76,457.56 806.16,458.92 804.55,460.28 802.94,461.64 801.33,463.00 799.72,464.37 798.11,465.73 796.50,467.09 794.89,468.45 793.28,469.81 791.67,471.18 790.06,472.54 788.45,473.90 786.83,475.26 785.22,476.63 783.61,477.99 781.99,479.35 780.38,480.71 778.76,482.07 777.15,483.44 775.53,484.80 773.92,486.16 772.30,487.52 770.69,488.88 769.07,490.24 767.46,491.60 765.84,492.96 764.23,494.32 762.61,495.68 761.00,497.04 759.38,498.40 757.77,499.75 756.15,501.11 754.54,502.47 752.93,503.82 751.31,505.18 750.33,506.01" type="driving"/>
  </edge>