<?xml version='1.0' encoding='UTF-8'?>
<!-- generated on 2022-09-06 03:58:23 by Eclipse SUMO netconvert Version 1.13.0
<configuration xmlns:xsi="http://www.w3.org/2001/XMLSchema-instance" xsi:noNamespaceSchemaLocation="http://sumo.dlr.de/xsd/netconvertConfiguration.xsd">

    <input>
        <opendrive-files value="map\1\74257745\74257745.xodr"/>
    </input>

    <output>
        <output-file value="C:\Users\LinGe\AppData\Local\Temp\tmp1fvkpx8t\74257745.net.xml"/>
    </output>

    <processing>
        <geometry.max-grade.fix value="false"/>
    </processing>

    <tls_building>
        <tls.left-green.time value="0"/>
    </tls_building>

    <junctions>
        <rectangular-lane-cut value="true"/>
    </junctions>

    <report>
        <aggregate-warnings value="5"/>
    </report>

</configuration>
-->
<net xmlns:xsi="http://www.w3.org/2001/XMLSchema-instance" version="1.9" junctionCornerDetail="5" rectangularLaneCut="true" limitTurnSpeed="5.50" xsi:noNamespaceSchemaLocation="http://sumo.dlr.de/xsd/net_file.xsd">
  <location netOffset="1.56,101.26" convBoundary="0.00,0.00,1102.73,1302.51" origBoundary="-1.56,-101.26,1101.18,1201.26" projParameter="!"/>
  <type id="bidirectional" priority="1" speed="1.39" disallow="pedestrian tram rail_urban rail rail_electric rail_fast ship" width="3.65"/>
  <type id="border" priority="0" speed="1.39" disallow="all" discard="1" width="0.10"/>
  <type id="driving" priority="1" speed="13.89" disallow="pedestrian tram rail_urban rail rail_electric rail_fast ship" width="3.65"/>
  <type id="entry" priority="1" speed="22.22" disallow="pedestrian tram rail_urban rail rail_electric rail_fast ship" width="3.65"/>
  <type id="exit" priority="1" speed="22.22" disallow="pedestrian tram rail_urban rail rail_electric rail_fast ship" width="3.65"/>
  <type id="median" priority="0" speed="1.39" disallow="all" discard="1" width="0.10"/>
  <type id="mwyEntry" priority="1" speed="22.22" allow="private emergency authority army vip passenger hov taxi bus coach delivery truck trailer motorcycle evehicle custom1 custom2" width="3.65"/>
  <type id="mwyExit" priority="1" speed="22.22" allow="private emergency authority army vip passenger hov taxi bus coach delivery truck trailer motorcycle evehicle custom1 custom2" width="3.65"/>
  <type id="none" priority="0" speed="1.39" disallow="all" discard="1" width="1.00"/>
  <type id="offRamp" priority="1" speed="22.22" allow="private emergency authority army vip passenger hov taxi bus coach delivery truck trailer motorcycle evehicle custom1 custom2" width="3.65"/>
  <type id="onRamp" priority="1" speed="22.22" allow="private emergency authority army vip passenger hov taxi bus coach delivery truck trailer motorcycle evehicle custom1 custom2" width="3.65"/>
  <type id="parking" priority="1" speed="1.39" disallow="pedestrian tram rail_urban rail rail_electric rail_fast ship" width="2.50"/>
  <type id="rail" priority="3" speed="33.33" allow="rail_urban rail rail_electric rail_fast" width="3.65"/>
  <type id="restricted" priority="0" speed="13.89" disallow="all" width="3.65"/>
  <type id="roadWorks" priority="0" speed="1.39" allow="authority" width="3.65"/>
  <type id="shoulder" priority="0" speed="1.39" disallow="all" discard="1" width="1.00"/>
  <type id="special1" priority="1" speed="22.22" allow="custom1" discard="1" width="3.65"/>
  <type id="special2" priority="1" speed="22.22" allow="custom2" discard="1" width="3.65"/>
  <type id="special3" priority="1" speed="22.22" allow="custom1 custom2" discard="1" width="3.65"/>
  <type id="stop" priority="1" speed="13.89" disallow="pedestrian tram rail_urban rail rail_electric rail_fast ship" width="3.65"/>
  <type id="tram" priority="2" speed="13.89" allow="tram" width="3.65"/>
  <edge id=":0_0" function="internal">
    <lane id=":0_0_0" index="0" disallow="pedestrian tram rail_urban rail rail_electric rail_fast ship" speed="22.22" length="117.43" width="3.75" shape="1028.55,284.71 945.84,368.07"/>
  </edge>
  <edge id=":0_1" function="internal">
    <lane id=":0_1_0" index="0" disallow="pedestrian tram rail_urban rail rail_electric rail_fast ship" speed="22.22" length="117.57" width="3.75" shape="1028.55,284.71 942.89,365.28"/>
    <lane id=":0_1_1" index="1" disallow="pedestrian tram rail_urban rail rail_electric rail_fast ship" speed="22.22" length="117.57" width="3.75" shape="1025.97,281.98 940.33,362.53"/>
    <lane id=":0_1_2" index="2" disallow="pedestrian tram rail_urban rail rail_electric rail_fast ship" speed="22.22" length="117.57" width="3.75" shape="1023.40,279.26 937.78,359.78"/>
  </edge>
  <edge id=":1_0" function="internal">
    <lane id=":1_0_0" index="0" disallow="pedestrian tram rail_urban rail rail_electric rail_fast ship" speed="18.06" length="58.96" width="3.75" shape="475.35,727.01 463.09,735.35 448.22,746.18 435.03,756.12 427.80,761.84"/>
  </edge>
  <edge id=":1_1" function="internal">
    <lane id=":1_1_0" index="0" disallow="pedestrian tram rail_urban rail rail_electric rail_fast ship" speed="22.22" length="59.17" width="3.75" shape="475.35,727.01 425.13,758.35"/>
    <lane id=":1_1_1" index="1" disallow="pedestrian tram rail_urban rail rail_electric rail_fast ship" speed="22.22" length="59.17" width="3.75" shape="473.35,723.84 423.16,755.16"/>
    <lane id=":1_1_2" index="2" disallow="pedestrian tram rail_urban rail rail_electric rail_fast ship" speed="22.22" length="59.17" width="3.75" shape="471.36,720.66 421.18,751.97"/>
  </edge>
  <edge id=":10_0" function="internal">
    <lane id=":10_0_0" index="0" disallow="pedestrian tram rail_urban rail rail_electric rail_fast ship" speed="19.44" length="67.92" width="3.75" shape="858.93,405.65,0.00 867.39,399.24,0.00 882.81,387.13,0.00 899.51,373.63,0.00 911.85,363.08"/>
  </edge>
  <edge id=":10_1" function="internal">
    <lane id=":10_1_0" index="0" disallow="pedestrian tram rail_urban rail rail_electric rail_fast ship" speed="22.22" length="67.60" width="3.75" shape="862.02,408.70 911.85,363.08"/>
    <lane id=":10_1_1" index="1" disallow="pedestrian tram rail_urban rail rail_electric rail_fast ship" speed="22.22" length="67.60" width="3.75" shape="864.53,411.48 914.39,365.84"/>
    <lane id=":10_1_2" index="2" disallow="pedestrian tram rail_urban rail rail_electric rail_fast ship" speed="22.22" length="67.60" width="3.75" shape="867.05,414.26 916.94,368.59"/>
  </edge>
  <edge id=":11_0" function="internal">
    <lane id=":11_0_0" index="0" disallow="pedestrian tram rail_urban rail rail_electric rail_fast ship" speed="13.89" length="52.25" width="3.75" shape="454.95,861.77,5.42 402.73,863.66,5.38"/>
  </edge>
  <edge id=":11_1" function="internal">
    <lane id=":11_1_0" index="0" disallow="pedestrian tram rail_urban rail rail_electric rail_fast ship" speed="18.06" length="51.96" width="3.75" shape="454.37,857.80,5.48 444.92,859.00,5.46 428.57,860.90,5.43 412.21,862.71,5.40 402.73,863.66,5.38"/>
  </edge>
  <edge id=":12_0" function="internal">
    <lane id=":12_0_0" index="0" disallow="pedestrian tram rail_urban rail rail_electric rail_fast ship" speed="22.22" length="53.19" width="3.75" shape="956.40,315.48,0.09 963.11,310.56,0.07 974.65,301.72,0.05 987.47,291.48,0.02 997.98,282.35"/>
  </edge>
  <edge id=":12_1" function="internal">
    <lane id=":12_1_0" index="0" disallow="pedestrian tram rail_urban rail rail_electric rail_fast ship" speed="22.22" length="52.76" width="3.75" shape="959.60,318.53 997.98,282.35"/>
    <lane id=":12_1_1" index="1" disallow="pedestrian tram rail_urban rail rail_electric rail_fast ship" speed="22.22" length="52.76" width="3.75" shape="962.17,321.27 1000.56,285.07"/>
    <lane id=":12_1_2" index="2" disallow="pedestrian tram rail_urban rail rail_electric rail_fast ship" speed="22.22" length="52.76" width="3.75" shape="964.74,324.00 1003.13,287.80"/>
  </edge>
  <edge id=":13_0" function="internal">
    <lane id=":13_0_0" index="0" disallow="pedestrian tram rail_urban rail rail_electric rail_fast ship" speed="18.06" length="42.69" width="3.75" shape="594.80,843.92,20.00 591.38,838.19,20.00 585.30,829.10,20.00 577.76,818.76,20.00 569.95,809.28,20.00"/>
  </edge>
  <edge id=":13_1" function="internal">
    <lane id=":13_1_0" index="0" disallow="pedestrian tram rail_urban rail rail_electric rail_fast ship" speed="22.22" length="42.00" width="3.75" shape="598.22,840.38,20.00 569.95,809.28,20.00"/>
    <lane id=":13_1_1" index="1" disallow="pedestrian tram rail_urban rail rail_electric rail_fast ship" speed="22.22" length="42.00" width="3.75" shape="600.99,837.85,20.00 572.74,806.77,20.00"/>
    <lane id=":13_1_2" index="2" disallow="pedestrian tram rail_urban rail rail_electric rail_fast ship" speed="22.22" length="42.00" width="3.75" shape="603.75,835.31,20.00 575.52,804.26,20.00"/>
  </edge>
  <edge id=":13.12_0" function="internal">
    <lane id=":13.12_0_0" index="0" disallow="pedestrian tram rail_urban rail rail_electric rail_fast ship" speed="22.22" length="0.30" width="3.75" shape="489.83,682.16,20.00 490.02,682.39,20.00"/>
    <lane id=":13.12_0_1" index="1" disallow="pedestrian tram rail_urban rail rail_electric rail_fast ship" speed="22.22" length="0.30" width="3.75" shape="486.91,684.51,20.00 487.10,684.75,20.00"/>
    <lane id=":13.12_0_2" index="2" disallow="pedestrian tram rail_urban rail rail_electric rail_fast ship" speed="22.22" length="0.30" width="3.75" shape="483.99,686.87,20.00 484.18,687.11,20.00"/>
  </edge>
  <edge id=":19.18_0" function="internal">
    <lane id=":19.18_0_0" index="0" disallow="pedestrian tram rail_urban rail rail_electric rail_fast ship" speed="22.22" length="0.30" width="3.75" shape="472.32,696.69,20.00 472.13,696.45,20.00"/>
    <lane id=":19.18_0_1" index="1" disallow="pedestrian tram rail_urban rail rail_electric rail_fast ship" speed="22.22" length="0.30" width="3.75" shape="475.24,694.33,20.00 475.05,694.10,20.00"/>
    <lane id=":19.18_0_2" index="2" disallow="pedestrian tram rail_urban rail rail_electric rail_fast ship" speed="22.22" length="0.30" width="3.75" shape="478.15,691.97,20.00 477.97,691.74,20.00"/>
  </edge>
  <edge id=":2_0" function="internal">
    <lane id=":2_0_0" index="0" disallow="pedestrian tram rail_urban rail rail_electric rail_fast ship" speed="15.97" length="55.05" width="3.75" shape="93.24,932.68 105.14,924.90 119.06,915.05 131.28,906.05 138.10,900.80"/>
  </edge>
  <edge id=":2_1" function="internal">
    <lane id=":2_1_0" index="0" disallow="pedestrian tram rail_urban rail rail_electric rail_fast ship" speed="22.22" length="55.19" width="3.75" shape="93.24,932.68 140.61,904.35"/>
    <lane id=":2_1_1" index="1" disallow="pedestrian tram rail_urban rail rail_electric rail_fast ship" speed="22.22" length="55.19" width="3.75" shape="95.17,935.90 142.54,907.57"/>
    <lane id=":2_1_2" index="2" disallow="pedestrian tram rail_urban rail rail_electric rail_fast ship" speed="22.22" length="55.19" width="3.75" shape="97.09,939.12 144.46,910.79"/>
  </edge>
  <edge id=":2.1_0" function="internal">
    <lane id=":2.1_0_0" index="0" disallow="pedestrian tram rail_urban rail rail_electric rail_fast ship" speed="22.22" length="0.30" width="3.75" shape="668.33,599.36 668.08,599.54"/>
    <lane id=":2.1_0_1" index="1" disallow="pedestrian tram rail_urban rail rail_electric rail_fast ship" speed="22.22" length="0.30" width="3.75" shape="666.12,596.33 665.88,596.51"/>
    <lane id=":2.1_0_2" index="2" disallow="pedestrian tram rail_urban rail rail_electric rail_fast ship" speed="22.22" length="0.30" width="3.75" shape="663.91,593.30 663.67,593.47"/>
  </edge>
  <edge id=":22.21_0" function="internal">
    <lane id=":22.21_0_0" index="0" disallow="pedestrian tram rail_urban rail rail_electric rail_fast ship" speed="22.22" length="0.30" width="3.75" shape="799.89,745.09,10.35 799.88,745.39,10.36"/>
  </edge>
  <edge id=":24.23_0" function="internal">
    <lane id=":24.23_0_0" index="0" disallow="pedestrian tram rail_urban rail rail_electric rail_fast ship" speed="13.89" length="0.30" width="3.75" shape="544.84,872.01,9.09 544.56,871.92,9.08"/>
  </edge>
  <edge id=":27.26_0" function="internal">
    <lane id=":27.26_0_0" index="0" disallow="pedestrian tram rail_urban rail rail_electric rail_fast ship" speed="9.72" length="0.29" width="3.75" shape="277.47,691.73,6.51 277.46,691.44,6.52"/>
  </edge>
  <edge id=":29.28_0" function="internal">
    <lane id=":29.28_0_0" index="0" disallow="pedestrian tram rail_urban rail rail_electric rail_fast ship" speed="16.67" length="0.30" width="3.75" shape="556.28,463.29,7.83 556.56,463.38,7.82"/>
  </edge>
  <edge id=":3_0" function="internal">
    <lane id=":3_0_0" index="0" disallow="pedestrian tram rail_urban rail rail_electric rail_fast ship" speed="19.44" length="7.99" width="3.75" shape="84.60,103.64,20.00 89.08,110.26,20.00"/>
  </edge>
  <edge id=":3_1" function="internal">
    <lane id=":3_1_0" index="0" disallow="pedestrian tram rail_urban rail rail_electric rail_fast ship" speed="22.22" length="7.19" width="3.75" shape="84.60,103.64,20.00 88.61,109.60,20.00"/>
    <lane id=":3_1_1" index="1" disallow="pedestrian tram rail_urban rail rail_electric rail_fast ship" speed="22.22" length="7.19" width="3.75" shape="81.49,105.73,20.00 85.50,111.70,20.00"/>
    <lane id=":3_1_2" index="2" disallow="pedestrian tram rail_urban rail rail_electric rail_fast ship" speed="22.22" length="7.19" width="3.75" shape="78.38,107.83,20.00 82.39,113.79,20.00"/>
  </edge>
  <edge id=":31.30_0" function="internal">
    <lane id=":31.30_0_0" index="0" disallow="pedestrian tram rail_urban rail rail_electric rail_fast ship" speed="22.22" length="0.30" width="3.75" shape="689.16,396.95,12.41 689.28,397.23,12.40"/>
  </edge>
  <edge id=":33.32_0" function="internal">
    <lane id=":33.32_0_0" index="0" disallow="pedestrian tram rail_urban rail rail_electric rail_fast ship" speed="22.22" length="0.30" width="3.75" shape="578.54,729.74,10.06 578.56,729.45,10.06"/>
  </edge>
  <edge id=":35.34_0" function="internal">
    <lane id=":35.34_0_0" index="0" disallow="pedestrian tram rail_urban rail rail_electric rail_fast ship" speed="13.89" length="0.29" width="3.75" shape="416.98,965.05,9.21 417.21,965.23,9.23"/>
  </edge>
  <edge id=":4_0" function="internal">
    <lane id=":4_0_0" index="0" disallow="pedestrian tram rail_urban rail rail_electric rail_fast ship" speed="15.53" length="15.07" width="3.75" shape="88.72,109.77,20.00 91.71,113.37,20.00 94.63,115.48,20.00 97.65,116.79,20.00 100.95,117.96,19.99"/>
  </edge>
  <edge id=":4_1" function="internal">
    <lane id=":4_1_0" index="0" disallow="pedestrian tram rail_urban rail rail_electric rail_fast ship" speed="22.22" length="15.33" width="3.75" shape="88.72,109.77,20.00 97.28,122.49,20.00"/>
    <lane id=":4_1_1" index="1" disallow="pedestrian tram rail_urban rail rail_electric rail_fast ship" speed="22.22" length="15.33" width="3.75" shape="85.61,111.86,20.00 94.17,124.58,20.00"/>
    <lane id=":4_1_2" index="2" disallow="pedestrian tram rail_urban rail rail_electric rail_fast ship" speed="22.22" length="15.33" width="3.75" shape="82.50,113.96,20.00 91.06,126.68,20.00"/>
  </edge>
  <edge id=":5_0" function="internal">
    <lane id=":5_0_0" index="0" disallow="pedestrian tram rail_urban rail rail_electric rail_fast ship" speed="18.06" length="8.00" width="3.75" shape="960.53,1222.62,20.00 954.97,1216.86,20.00"/>
  </edge>
  <edge id=":5_1" function="internal">
    <lane id=":5_1_0" index="0" disallow="pedestrian tram rail_urban rail rail_electric rail_fast ship" speed="22.22" length="8.00" width="3.75" shape="960.53,1222.62,20.00 954.98,1216.86,20.00"/>
    <lane id=":5_1_1" index="1" disallow="pedestrian tram rail_urban rail rail_electric rail_fast ship" speed="22.22" length="8.00" width="3.75" shape="963.23,1220.02,20.00 957.68,1214.26,20.00"/>
    <lane id=":5_1_2" index="2" disallow="pedestrian tram rail_urban rail rail_electric rail_fast ship" speed="22.22" length="8.00" width="3.75" shape="965.93,1217.41,20.00 960.38,1211.65,20.00"/>
  </edge>
  <edge id=":6_0" function="internal">
    <lane id=":6_0_0" index="0" disallow="pedestrian tram rail_urban rail rail_electric rail_fast ship" speed="22.22" length="37.53" width="3.75" shape="941.91,1203.29,20.00 933.56,1195.43,19.99 925.02,1188.46,19.97 917.66,1183.00,19.96 912.83,1179.65,19.96"/>
  </edge>
  <edge id=":6_1" function="internal">
    <lane id=":6_1_0" index="0" disallow="pedestrian tram rail_urban rail rail_electric rail_fast ship" speed="22.22" length="37.69" width="3.75" shape="941.91,1203.29,20.00 915.76,1176.15,20.00"/>
    <lane id=":6_1_1" index="1" disallow="pedestrian tram rail_urban rail rail_electric rail_fast ship" speed="22.22" length="37.69" width="3.75" shape="944.61,1200.69,20.00 918.46,1173.55,20.00"/>
    <lane id=":6_1_2" index="2" disallow="pedestrian tram rail_urban rail rail_electric rail_fast ship" speed="22.22" length="37.69" width="3.75" shape="947.31,1198.09,20.00 921.16,1170.95,20.00"/>
  </edge>
  <edge id=":7_0" function="internal">
    <lane id=":7_0_0" index="0" disallow="pedestrian tram rail_urban rail rail_electric rail_fast ship" speed="22.22" length="50.42" width="3.75" shape="940.29,1162.46,19.87 944.97,1168.80,19.89 953.27,1179.56,19.93 962.99,1191.58,19.97 971.93,1201.68,20.00"/>
  </edge>
  <edge id=":7_1" function="internal">
    <lane id=":7_1_0" index="0" disallow="pedestrian tram rail_urban rail rail_electric rail_fast ship" speed="22.22" length="49.96" width="3.75" shape="937.26,1165.70,20.00 971.93,1201.68,20.00"/>
    <lane id=":7_1_1" index="1" disallow="pedestrian tram rail_urban rail rail_electric rail_fast ship" speed="22.22" length="49.96" width="3.75" shape="934.56,1168.31,20.00 969.23,1204.29,20.00"/>
    <lane id=":7_1_2" index="2" disallow="pedestrian tram rail_urban rail rail_electric rail_fast ship" speed="22.22" length="49.96" width="3.75" shape="931.86,1170.91,20.00 966.53,1206.89,20.00"/>
  </edge>
  <edge id=":7.6_0" function="internal">
    <lane id=":7.6_0_0" index="0" disallow="pedestrian tram rail_urban rail rail_electric rail_fast ship" speed="22.22" length="0.30" width="3.75" shape="654.70,581.14 654.94,580.97"/>
    <lane id=":7.6_0_1" index="1" disallow="pedestrian tram rail_urban rail rail_electric rail_fast ship" speed="22.22" length="0.30" width="3.75" shape="656.91,584.18 657.15,584.00"/>
    <lane id=":7.6_0_2" index="2" disallow="pedestrian tram rail_urban rail rail_electric rail_fast ship" speed="22.22" length="0.30" width="3.75" shape="659.11,587.21 659.36,587.03"/>
  </edge>
  <edge id=":8_0" function="internal">
    <lane id=":8_0_0" index="0" disallow="pedestrian tram rail_urban rail rail_electric rail_fast ship" speed="18.06" length="69.44" width="3.75" shape="167.28,919.87,0.00 157.53,924.62,0.00 139.56,933.69,0.00 120.04,943.82,0.00 105.61,951.77"/>
  </edge>
  <edge id=":8_1" function="internal">
    <lane id=":8_1_0" index="0" disallow="pedestrian tram rail_urban rail rail_electric rail_fast ship" speed="22.22" length="69.10" width="3.75" shape="164.92,916.30 105.61,951.77"/>
    <lane id=":8_1_1" index="1" disallow="pedestrian tram rail_urban rail rail_electric rail_fast ship" speed="22.22" length="69.10" width="3.75" shape="162.99,913.08 103.69,948.56"/>
    <lane id=":8_1_2" index="2" disallow="pedestrian tram rail_urban rail rail_electric rail_fast ship" speed="22.22" length="69.10" width="3.75" shape="161.07,909.86 101.76,945.34"/>
  </edge>
  <edge id=":9_0" function="internal">
    <lane id=":9_0_0" index="0" disallow="pedestrian tram rail_urban rail rail_electric rail_fast ship" speed="15.97" length="91.09" width="3.75" shape="97.92,171.52,20.00 90.67,159.27,20.00 76.46,135.65,20.00 61.13,110.52,20.00 50.53,93.73,20.00"/>
  </edge>
  <edge id=":9_1" function="internal">
    <lane id=":9_1_0" index="0" disallow="pedestrian tram rail_urban rail rail_electric rail_fast ship" speed="22.22" length="90.85" width="3.75" shape="101.25,169.10,20.00 50.53,93.73,20.00"/>
    <lane id=":9_1_1" index="1" disallow="pedestrian tram rail_urban rail rail_electric rail_fast ship" speed="22.22" length="90.85" width="3.75" shape="104.36,167.00,20.00 53.64,91.64,20.00"/>
    <lane id=":9_1_2" index="2" disallow="pedestrian tram rail_urban rail rail_electric rail_fast ship" speed="22.22" length="90.85" width="3.75" shape="107.48,164.91,20.00 56.75,89.54,20.00"/>
  </edge>
  <edge id="-0" from="0.begin" to="0" priority="1" type="driving" shape="1102.73,202.87 1101.70,203.79 1100.64,204.73 1099.58,205.68 1098.49,206.65 1097.39,207.63 1096.28,208.63 1095.15,209.65 1094.00,210.69 1092.84,211.74 1091.67,212.81 1090.48,213.89 1089.27,214.99 1088.05,216.11 1086.81,217.24 1085.56,218.39 1084.29,219.55 1083.01,220.73 1081.72,221.92 1080.41,223.13 1079.09,224.35 1077.75,225.59 1076.40,226.85 1075.03,228.11 1073.65,229.39 1072.26,230.69 1070.85,232.00 1069.43,233.33 1068.00,234.66 1066.55,236.02 1065.09,237.38 1063.62,238.76 1062.13,240.15 1060.63,241.56 1059.12,242.98 1057.59,244.41 1056.06,245.86 1054.51,247.31 1052.94,248.79 1051.37,250.27 1049.78,251.76 1048.18,253.27 1046.57,254.79 1044.94,256.32 1043.31,257.87 1041.66,259.42 1040.00,260.99 1038.33,262.57 1036.64,264.16 1034.95,265.76 1033.24,267.37 1031.53,268.99 1029.80,270.62 1028.06,272.27 1026.31,273.92 1024.55,275.59 1022.78,277.26 1021.00,278.95 1019.20,280.64">
    <lane id="-0_0" index="0" disallow="pedestrian tram rail_urban rail rail_electric rail_fast ship" speed="22.22" length="109.95" width="3.75" shape="1108.95,209.89 1107.92,210.80 1106.88,211.73 1105.82,212.67 1104.75,213.63 1103.66,214.61 1102.55,215.60 1101.43,216.61 1100.29,217.64 1099.14,218.68 1097.97,219.75 1096.79,220.82 1095.59,221.92 1094.37,223.03 1093.14,224.15 1091.90,225.29 1090.64,226.45 1089.37,227.62 1088.08,228.81 1086.77,230.02 1085.45,231.24 1084.12,232.47 1082.77,233.72 1081.41,234.98 1080.04,236.26 1078.65,237.55 1077.25,238.86 1075.83,240.18 1074.40,241.52 1072.95,242.87 1071.50,244.23 1070.03,245.60 1068.54,247.00 1067.05,248.40 1065.54,249.82 1064.01,251.25 1062.48,252.69 1060.93,254.14 1059.37,255.61 1057.79,257.09 1056.21,258.59 1054.61,260.09 1053.00,261.61 1051.37,263.14 1049.74,264.68 1048.09,266.24 1046.43,267.80 1044.76,269.38 1043.08,270.97 1041.39,272.57 1039.68,274.18 1037.97,275.80 1036.24,277.44 1034.50,279.08 1032.75,280.73 1030.99,282.40 1029.22,284.07 1028.55,284.71" type="driving"/>
    <lane id="-0_1" index="1" disallow="pedestrian tram rail_urban rail rail_electric rail_fast ship" speed="22.22" length="109.95" width="3.75" shape="1106.46,207.09 1105.43,208.00 1104.38,208.93 1103.32,209.87 1102.25,210.84 1101.15,211.82 1100.04,212.81 1098.92,213.83 1097.78,214.86 1096.62,215.91 1095.45,216.97 1094.26,218.05 1093.06,219.15 1091.84,220.26 1090.61,221.39 1089.36,222.53 1088.10,223.69 1086.83,224.87 1085.53,226.06 1084.23,227.26 1082.91,228.48 1081.57,229.72 1080.22,230.97 1078.86,232.23 1077.48,233.51 1076.09,234.81 1074.69,236.12 1073.27,237.44 1071.84,238.78 1070.39,240.13 1068.94,241.49 1067.46,242.87 1065.98,244.26 1064.48,245.66 1062.97,247.08 1061.44,248.51 1059.91,249.96 1058.36,251.41 1056.80,252.88 1055.22,254.36 1053.64,255.86 1052.04,257.36 1050.42,258.88 1048.80,260.41 1047.17,261.96 1045.52,263.51 1043.86,265.08 1042.19,266.66 1040.51,268.24 1038.81,269.84 1037.11,271.46 1035.39,273.08 1033.66,274.71 1031.92,276.36 1030.17,278.01 1028.41,279.67 1026.64,281.35 1025.97,281.98" type="driving"/>
    <lane id="-0_2" index="2" disallow="pedestrian tram rail_urban rail rail_electric rail_fast ship" speed="22.22" length="109.95" width="3.75" shape="1103.98,204.28 1102.94,205.19 1101.89,206.13 1100.83,207.08 1099.74,208.04 1098.65,209.03 1097.53,210.03 1096.41,211.04 1095.26,212.08 1094.10,213.13 1092.93,214.20 1091.74,215.28 1090.53,216.38 1089.31,217.49 1088.08,218.62 1086.83,219.77 1085.56,220.93 1084.28,222.11 1082.99,223.30 1081.68,224.51 1080.36,225.73 1079.02,226.97 1077.67,228.22 1076.31,229.49 1074.93,230.77 1073.54,232.06 1072.13,233.37 1070.71,234.70 1069.28,236.03 1067.83,237.39 1066.37,238.75 1064.90,240.13 1063.41,241.52 1061.91,242.93 1060.40,244.35 1058.88,245.78 1057.34,247.22 1055.79,248.68 1054.23,250.15 1052.65,251.63 1051.06,253.13 1049.46,254.64 1047.85,256.16 1046.23,257.69 1044.59,259.23 1042.94,260.78 1041.29,262.35 1039.61,263.93 1037.93,265.52 1036.24,267.12 1034.53,268.73 1032.81,270.35 1031.09,271.99 1029.35,273.63 1027.60,275.28 1025.84,276.95 1024.07,278.63 1023.40,279.26" type="driving"/>
  </edge>
  <edge id="-1" from="0" to="2.1" priority="1" type="driving" shape="1019.20,280.64 1017.98,281.80 1016.75,282.96 1015.52,284.12 1014.29,285.29 1013.05,286.47 1011.80,287.64 1010.55,288.83 1009.30,290.01 1008.04,291.20 1006.77,292.40 1005.51,293.60 1004.23,294.80 1002.96,296.00 1001.67,297.22 1000.39,298.43 999.10,299.65 997.80,300.87 996.51,302.10 995.20,303.33 993.90,304.56 992.58,305.80 991.27,307.04 989.95,308.29 988.62,309.54 987.30,310.79 985.96,312.05 984.63,313.31 983.29,314.57 981.94,315.83 980.60,317.10 979.24,318.38 977.89,319.65 976.53,320.93 975.17,322.22 973.80,323.50 972.43,324.79 971.05,326.08 969.68,327.38 968.29,328.68 966.91,329.98 965.52,331.28 964.13,332.59 962.73,333.90 961.33,335.21 959.93,336.53 958.52,337.85 957.11,339.17 955.70,340.49 954.28,341.82 952.86,343.15 951.44,344.48 950.01,345.81 948.58,347.15 947.15,348.49 945.71,349.83 944.27,351.17 942.83,352.52 941.38,353.86 939.94,355.21 938.48,356.57 937.03,357.92 935.57,359.28 934.11,360.63 932.65,361.99 931.18,363.36 929.71,364.72 928.24,366.09 926.77,367.46 925.29,368.83 923.81,370.20 922.33,371.57 920.84,372.95 919.35,374.32 917.86,375.70 916.37,377.08 914.88,378.46 913.38,379.84 911.88,381.23 910.37,382.61 908.87,384.00 907.36,385.39 905.85,386.78 904.34,388.17 902.82,389.56 901.31,390.95 899.79,392.35 898.27,393.74 896.74,395.14 895.22,396.54 893.69,397.93 892.16,399.33 890.63,400.73 889.09,402.13 887.56,403.54 886.02,404.94 884.48,406.34 882.94,407.74 881.39,409.15 879.85,410.55 878.30,411.96 876.75,413.36 875.20,414.77 873.65,416.18 872.10,417.58 870.54,418.99 868.98,420.40 867.42,421.81 865.86,423.22 864.30,424.62 862.74,426.03 861.17,427.44 859.61,428.85 858.04,430.26 856.47,431.67 854.90,433.08 853.33,434.49 851.76,435.89 850.18,437.30 848.61,438.71 847.03,440.12 845.45,441.52 843.87,442.93 842.29,444.34 840.71,445.74 839.13,447.15 837.55,448.56 835.96,449.96 834.38,451.36 832.79,452.77 831.20,454.17 829.62,455.57 828.03,456.97 826.44,458.37 824.85,459.77 823.26,461.17 821.67,462.57 820.07,463.97 818.48,465.36 816.89,466.76 815.29,468.15 813.70,469.54 812.10,470.94 810.51,472.33 808.91,473.72 807.32,475.10 805.72,476.49 804.12,477.88 802.52,479.26 800.93,480.64 799.33,482.02 797.73,483.40 796.13,484.78 794.53,486.15 792.93,487.53 791.33,488.90 789.74,490.27 788.14,491.64 786.54,493.01 784.94,494.38 783.34,495.74 781.74,497.10 780.14,498.46 778.54,499.82 776.94,501.17 775.34,502.53 773.75,503.88 772.15,505.23 770.55,506.58 768.95,507.92 767.35,509.26 765.76,510.60 764.16,511.94 762.56,513.28 760.97,514.61 759.37,515.94 757.78,517.27 756.19,518.59 754.59,519.92 753.00,521.24 751.41,522.55 749.81,523.87 748.22,525.18 746.63,526.49 745.04,527.80 743.46,529.10 741.87,530.40 740.28,531.70 738.69,532.99 737.11,534.28 735.53,535.57 733.94,536.86 732.36,538.14 730.78,539.42 729.20,540.69 727.62,541.96 726.04,543.23 724.46,544.50 722.89,545.76 721.31,547.02 719.74,548.27 718.17,549.53 716.60,550.77 715.03,552.02 713.46,553.26 711.90,554.50 710.33,555.73 708.77,556.96 707.20,558.18 705.64,559.40 704.09,560.62 702.53,561.84 700.97,563.05 699.42,564.25 697.87,565.45 696.31,566.65 694.77,567.84 693.22,569.03 691.67,570.22 690.13,571.40 688.59,572.57 687.05,573.75 685.51,574.91 683.97,576.08 682.44,577.24 680.91,578.39 679.38,579.54 677.85,580.68 676.32,581.82 674.80,582.96 673.28,584.09 671.76,585.22 670.24,586.34 668.73,587.46 667.21,588.57 665.70,589.67 664.19,590.78 662.69,591.87">