<?xml version='1.0' encoding='UTF-8'?>
<!-- generated on 2022-09-25 13:26:30 by Eclipse SUMO netconvert Version 1.13.0
<configuration xmlns:xsi="http://www.w3.org/2001/XMLSchema-instance" xsi:noNamespaceSchemaLocation="http://sumo.dlr.de/xsd/netconvertConfiguration.xsd">

    <input>
        <opendrive-files value="map_new_new\19\24\24.xodr"/>
    </input>

    <output>
        <output-file value="C:\Users\LinGe\AppData\Local\Temp\tmp26m5lskl\24.net.xml"/>
    </output>

    <processing>
        <geometry.max-grade.fix value="false"/>
    </processing>

    <tls_building>
        <tls.left-green.time value="0"/>
    </tls_building>

    <junctions>
        <rectangular-lane-cut value="true"/>
    </junctions>

    <report>
        <aggregate-warnings value="5"/>
    </report>

</configuration>
-->
<net xmlns:xsi="http://www.w3.org/2001/XMLSchema-instance" version="1.9" junctionCornerDetail="5" rectangularLaneCut="true" limitTurnSpeed="5.50" xsi:noNamespaceSchemaLocation="http://sumo.dlr.de/xsd/net_file.xsd">
  <location netOffset="1.56,101.26" convBoundary="0.00,0.00,1102.73,1302.51" origBoundary="-1.56,-101.26,1101.18,1201.26" projParameter="!"/>
  <type id="bidirectional" priority="1" speed="1.39" disallow="pedestrian tram rail_urban rail rail_electric rail_fast ship" width="3.65"/>
  <type id="border" priority="0" speed="1.39" disallow="all" discard="1" width="0.10"/>
  <type id="driving" priority="1" speed="13.89" disallow="pedestrian tram rail_urban rail rail_electric rail_fast ship" width="3.65"/>
  <type id="entry" priority="1" speed="22.22" disallow="pedestrian tram rail_urban rail rail_electric rail_fast ship" width="3.65"/>
  <type id="exit" priority="1" speed="22.22" disallow="pedestrian tram rail_urban rail rail_electric rail_fast ship" width="3.65"/>
  <type id="median" priority="0" speed="1.39" disallow="all" discard="1" width="0.10"/>
  <type id="mwyEntry" priority="1" speed="22.22" allow="private emergency authority army vip passenger hov taxi bus coach delivery truck trailer motorcycle evehicle custom1 custom2" width="3.65"/>
  <type id="mwyExit" priority="1" speed="22.22" allow="private emergency authority army vip passenger hov taxi bus coach delivery truck trailer motorcycle evehicle custom1 custom2" width="3.65"/>
  <type id="none" priority="0" speed="1.39" disallow="all" discard="1" width="1.00"/>
  <type id="offRamp" priority="1" speed="22.22" allow="private emergency authority army vip passenger hov taxi bus coach delivery truck trailer motorcycle evehicle custom1 custom2" width="3.65"/>
  <type id="onRamp" priority="1" speed="22.22" allow="private emergency authority army vip passenger hov taxi bus coach delivery truck trailer motorcycle evehicle custom1 custom2" width="3.65"/>
  <type id="parking" priority="1" speed="1.39" disallow="pedestrian tram rail_urban rail rail_electric rail_fast ship" width="2.50"/>
  <type id="rail" priority="3" speed="33.33" allow="rail_urban rail rail_electric rail_fast" width="3.65"/>
  <type id="restricted" priority="0" speed="13.89" disallow="all" width="3.65"/>
  <type id="roadWorks" priority="0" speed="1.39" allow="authority" width="3.65"/>
  <type id="shoulder" priority="0" speed="1.39" disallow="all" discard="1" width="1.00"/>
  <type id="special1" priority="1" speed="22.22" allow="custom1" discard="1" width="3.65"/>
  <type id="special2" priority="1" speed="22.22" allow="custom2" discard="1" width="3.65"/>
  <type id="special3" priority="1" speed="22.22" allow="custom1 custom2" discard="1" width="3.65"/>
  <type id="stop" priority="1" speed="13.89" disallow="pedestrian tram rail_urban rail rail_electric rail_fast ship" width="3.65"/>
  <type id="tram" priority="2" speed="13.89" allow="tram" width="3.65"/>
  <edge id=":0_0" function="internal">
    <lane id=":0_0_0" index="0" disallow="pedestrian tram rail_urban rail rail_electric rail_fast ship" speed="16.67" length="34.13" width="3.75" shape="996.51,309.10 988.72,316.77,0.01 982.29,324.23,0.02 977.42,330.58,0.02 974.28,334.91,0.03"/>
  </edge>
  <edge id=":0_1" function="internal">
    <lane id=":0_1_0" index="0" disallow="pedestrian tram rail_urban rail rail_electric rail_fast ship" speed="22.22" length="34.25" width="3.75" shape="996.51,309.10 970.89,331.84"/>
    <lane id=":0_1_1" index="1" disallow="pedestrian tram rail_urban rail rail_electric rail_fast ship" speed="22.22" length="34.25" width="3.75" shape="994.02,306.30 968.40,329.04"/>
    <lane id=":0_1_2" index="2" disallow="pedestrian tram rail_urban rail rail_electric rail_fast ship" speed="22.22" length="34.25" width="3.75" shape="991.53,303.50 965.91,326.23"/>
  </edge>
  <edge id=":1_0" function="internal">
    <lane id=":1_0_0" index="0" disallow="pedestrian tram rail_urban rail rail_electric rail_fast ship" speed="18.06" length="70.74" width="3.75" shape="128.38,118.48,20.00 140.27,130.16,20.00 156.66,145.49,20.00 171.82,159.39,20.00 180.07,166.76,20.00"/>
  </edge>
  <edge id=":1_1" function="internal">
    <lane id=":1_1_0" index="0" disallow="pedestrian tram rail_urban rail rail_electric rail_fast ship" speed="22.22" length="70.86" width="3.75" shape="128.38,118.48,20.00 177.21,169.83,20.00"/>
    <lane id=":1_1_1" index="1" disallow="pedestrian tram rail_urban rail rail_electric rail_fast ship" speed="22.22" length="70.86" width="3.75" shape="125.66,121.06,20.00 174.49,172.42,20.00"/>
    <lane id=":1_1_2" index="2" disallow="pedestrian tram rail_urban rail rail_electric rail_fast ship" speed="22.22" length="70.86" width="3.75" shape="122.94,123.65,20.00 171.77,175.00,20.00"/>
  </edge>
  <edge id=":13.12_0" function="internal">
    <lane id=":13.12_0_0" index="0" disallow="pedestrian tram rail_urban rail rail_electric rail_fast ship" speed="13.89" length="0.30" width="3.75" shape="397.39,288.25,13.32 397.69,288.30,13.31"/>
  </edge>
  <edge id=":15.14_0" function="internal">
    <lane id=":15.14_0_0" index="0" disallow="pedestrian tram rail_urban rail rail_electric rail_fast ship" speed="11.11" length="0.29" width="3.75" shape="544.59,792.66,9.56 544.30,792.63,9.56"/>
  </edge>
  <edge id=":2_0" function="internal">
    <lane id=":2_0_0" index="0" disallow="pedestrian tram rail_urban rail rail_electric rail_fast ship" speed="18.06" length="58.64" width="3.75" shape="960.09,305.10,0.15 967.58,299.83,0.12 980.80,290.08,0.08 995.32,278.98,0.04 1006.74,269.60"/>
  </edge>
  <edge id=":2_1" function="internal">
    <lane id=":2_1_0" index="0" disallow="pedestrian tram rail_urban rail rail_electric rail_fast ship" speed="22.22" length="58.22" width="3.75" shape="963.22,308.26 1006.74,269.60"/>
    <lane id=":2_1_1" index="1" disallow="pedestrian tram rail_urban rail rail_electric rail_fast ship" speed="22.22" length="58.22" width="3.75" shape="965.71,311.07 1009.23,272.41"/>
    <lane id=":2_1_2" index="2" disallow="pedestrian tram rail_urban rail rail_electric rail_fast ship" speed="22.22" length="58.22" width="3.75" shape="968.20,313.87 1011.72,275.21"/>
  </edge>
  <edge id=":2.1_0" function="internal">
    <lane id=":2.1_0_0" index="0" disallow="pedestrian tram rail_urban rail rail_electric rail_fast ship" speed="22.22" length="0.30" width="3.75" shape="566.46,671.62 566.21,671.80"/>
    <lane id=":2.1_0_1" index="1" disallow="pedestrian tram rail_urban rail rail_electric rail_fast ship" speed="22.22" length="0.30" width="3.75" shape="564.25,668.59 564.01,668.77"/>
    <lane id=":2.1_0_2" index="2" disallow="pedestrian tram rail_urban rail rail_electric rail_fast ship" speed="22.22" length="0.30" width="3.75" shape="562.05,665.56 561.81,665.73"/>
  </edge>
  <edge id=":3_0" function="internal">
    <lane id=":3_0_0" index="0" disallow="pedestrian tram rail_urban rail rail_electric rail_fast ship" speed="16.67" length="46.04" width="3.75" shape="210.04,244.29,19.95 206.01,238.32,19.96 198.90,228.55,19.97 190.33,217.54,19.99 181.95,207.86,20.00"/>
  </edge>
  <edge id=":3_1" function="internal">
    <lane id=":3_1_0" index="0" disallow="pedestrian tram rail_urban rail rail_electric rail_fast ship" speed="22.22" length="45.47" width="3.75" shape="213.23,240.86,20.00 181.95,207.86,20.00"/>
    <lane id=":3_1_1" index="1" disallow="pedestrian tram rail_urban rail rail_electric rail_fast ship" speed="22.22" length="45.47" width="3.75" shape="215.95,238.29,20.00 184.67,205.28,20.00"/>
    <lane id=":3_1_2" index="2" disallow="pedestrian tram rail_urban rail rail_electric rail_fast ship" speed="22.22" length="45.47" width="3.75" shape="218.67,235.71,20.00 187.40,202.70,20.00"/>
  </edge>
  <edge id=":4.3_0" function="internal">
    <lane id=":4.3_0_0" index="0" disallow="pedestrian tram rail_urban rail rail_electric rail_fast ship" speed="22.22" length="0.30" width="3.75" shape="552.84,653.40 553.08,653.23"/>
    <lane id=":4.3_0_1" index="1" disallow="pedestrian tram rail_urban rail rail_electric rail_fast ship" speed="22.22" length="0.30" width="3.75" shape="555.04,656.43 555.28,656.26"/>
    <lane id=":4.3_0_2" index="2" disallow="pedestrian tram rail_urban rail rail_electric rail_fast ship" speed="22.22" length="0.30" width="3.75" shape="557.24,659.47 557.49,659.29"/>
  </edge>
  <edge id=":8.7_0" function="internal">
    <lane id=":8.7_0_0" index="0" disallow="pedestrian tram rail_urban rail rail_electric rail_fast ship" speed="22.22" length="0.30" width="3.75" shape="610.38,642.99,20.00 610.58,643.23,20.00"/>
    <lane id=":8.7_0_1" index="1" disallow="pedestrian tram rail_urban rail rail_electric rail_fast ship" speed="22.22" length="0.30" width="3.75" shape="607.47,645.35,20.00 607.66,645.58,20.00"/>
    <lane id=":8.7_0_2" index="2" disallow="pedestrian tram rail_urban rail rail_electric rail_fast ship" speed="22.22" length="0.30" width="3.75" shape="604.55,647.71,20.00 604.74,647.94,20.00"/>
  </edge>
  <edge id=":9.10_0" function="internal">
    <lane id=":9.10_0_0" index="0" disallow="pedestrian tram rail_urban rail rail_electric rail_fast ship" speed="22.22" length="0.30" width="3.75" shape="592.87,657.52,20.00 592.69,657.29,20.00"/>
    <lane id=":9.10_0_1" index="1" disallow="pedestrian tram rail_urban rail rail_electric rail_fast ship" speed="22.22" length="0.30" width="3.75" shape="595.79,655.16,20.00 595.60,654.93,20.00"/>
    <lane id=":9.10_0_2" index="2" disallow="pedestrian tram rail_urban rail rail_electric rail_fast ship" speed="22.22" length="0.30" width="3.75" shape="598.71,652.81,20.00 598.52,652.57,20.00"/>
  </edge>
  <edge id="-0" from="0.begin" to="0" priority="1" type="driving" shape="1102.73,202.87 1101.86,203.62 1100.96,204.38 1100.05,205.16 1099.12,205.96 1098.17,206.78 1097.20,207.62 1096.21,208.47 1095.20,209.34 1094.17,210.23 1093.13,211.13 1092.06,212.05 1090.98,212.99 1089.88,213.95 1088.77,214.92 1087.63,215.91 1086.48,216.92 1085.31,217.94 1084.12,218.98 1082.91,220.03 1081.69,221.11 1080.45,222.19 1079.19,223.30 1077.91,224.41 1076.62,225.55 1075.31,226.70 1073.99,227.86 1072.65,229.04 1071.29,230.24 1069.92,231.45 1068.53,232.67 1067.12,233.91 1065.70,235.17 1064.26,236.44 1062.81,237.72 1061.34,239.02 1059.86,240.33 1058.36,241.66 1056.85,243.00 1055.32,244.35 1053.77,245.72 1052.21,247.10 1050.64,248.49 1049.05,249.90 1047.45,251.32 1045.83,252.75 1044.20,254.20 1042.56,255.66 1040.90,257.13 1039.23,258.61 1037.54,260.11 1035.84,261.62 1034.13,263.14 1032.40,264.67 1030.66,266.22 1028.91,267.77 1027.14,269.34 1025.36,270.92 1023.57,272.51 1021.77,274.12 1019.95,275.73 1018.12,277.35 1016.28,278.99 1014.43,280.64 1012.56,282.29 1010.69,283.96 1008.80,285.64 1006.90,287.33 1004.99,289.03 1003.06,290.74 1001.13,292.46 999.18,294.19 997.23,295.92 995.26,297.67 993.28,299.43 991.29,301.20 989.29,302.97 987.28,304.76">
    <lane id="-0_0" index="0" disallow="pedestrian tram rail_urban rail rail_electric rail_fast ship" speed="22.22" length="149.85" width="3.75" shape="1108.81,210.01 1107.94,210.75 1107.06,211.51 1106.15,212.28 1105.22,213.08 1104.28,213.89 1103.32,214.72 1102.33,215.57 1101.33,216.43 1100.31,217.32 1099.27,218.22 1098.21,219.13 1097.13,220.07 1096.04,221.02 1094.92,221.99 1093.79,222.98 1092.64,223.98 1091.47,225.00 1090.29,226.04 1089.08,227.09 1087.86,228.16 1086.63,229.24 1085.37,230.34 1084.10,231.46 1082.81,232.59 1081.50,233.74 1080.18,234.90 1078.84,236.08 1077.49,237.27 1076.12,238.48 1074.73,239.71 1073.32,240.94 1071.91,242.20 1070.47,243.46 1069.02,244.75 1067.55,246.04 1066.07,247.35 1064.57,248.68 1063.06,250.02 1061.53,251.37 1059.99,252.73 1058.43,254.11 1056.86,255.51 1055.27,256.91 1053.67,258.33 1052.05,259.77 1050.42,261.21 1048.78,262.67 1047.12,264.14 1045.45,265.62 1043.76,267.12 1042.06,268.63 1040.35,270.15 1038.63,271.68 1036.89,273.23 1035.13,274.78 1033.37,276.35 1031.59,277.93 1029.80,279.52 1028.00,281.12 1026.18,282.74 1024.35,284.36 1022.51,286.00 1020.66,287.64 1018.79,289.30 1016.92,290.97 1015.03,292.65 1013.13,294.34 1011.21,296.04 1009.29,297.75 1007.36,299.46 1005.41,301.19 1003.45,302.93 1001.49,304.68 999.51,306.44 997.52,308.21 996.51,309.10" type="driving"/>
    <lane id="-0_1" index="1" disallow="pedestrian tram rail_urban rail rail_electric rail_fast ship" speed="22.22" length="149.85" width="3.75" shape="1106.38,207.16 1105.51,207.90 1104.62,208.66 1103.71,209.44 1102.78,210.23 1101.83,211.05 1100.87,211.88 1099.88,212.73 1098.88,213.60 1097.85,214.48 1096.81,215.38 1095.75,216.30 1094.67,217.24 1093.58,218.19 1092.46,219.16 1091.33,220.15 1090.17,221.16 1089.01,222.18 1087.82,223.21 1086.61,224.27 1085.39,225.34 1084.15,226.42 1082.90,227.52 1081.63,228.64 1080.34,229.77 1079.03,230.92 1077.71,232.09 1076.37,233.27 1075.01,234.46 1073.64,235.67 1072.25,236.89 1070.84,238.13 1069.42,239.39 1067.99,240.65 1066.54,241.94 1065.07,243.23 1063.58,244.54 1062.09,245.87 1060.57,247.21 1059.05,248.56 1057.50,249.93 1055.94,251.31 1054.37,252.70 1052.78,254.11 1051.18,255.53 1049.57,256.96 1047.94,258.41 1046.29,259.86 1044.63,261.34 1042.96,262.82 1041.27,264.32 1039.58,265.82 1037.86,267.34 1036.14,268.88 1034.40,270.42 1032.64,271.98 1030.88,273.55 1029.10,275.13 1027.31,276.72 1025.51,278.32 1023.69,279.93 1021.86,281.56 1020.02,283.19 1018.17,284.84 1016.30,286.50 1014.42,288.17 1012.54,289.85 1010.64,291.53 1008.72,293.23 1006.80,294.94 1004.87,296.66 1002.92,298.39 1000.96,300.13 998.99,301.88 997.02,303.64 995.03,305.40 994.02,306.30" type="driving"/>
    <lane id="-0_2" index="2" disallow="pedestrian tram rail_urban rail rail_electric rail_fast ship" speed="22.22" length="149.85" width="3.75" shape="1103.95,204.30 1103.07,205.05 1102.18,205.81 1101.27,206.59 1100.34,207.39 1099.39,208.20 1098.42,209.04 1097.43,209.89 1096.43,210.76 1095.40,211.64 1094.36,212.55 1093.29,213.47 1092.21,214.41 1091.11,215.36 1090.00,216.34 1088.86,217.32 1087.71,218.33 1086.54,219.35 1085.35,220.39 1084.15,221.45 1082.92,222.52 1081.68,223.60 1080.43,224.71 1079.15,225.82 1077.86,226.96 1076.55,228.11 1075.23,229.27 1073.89,230.45 1072.53,231.65 1071.16,232.86 1069.77,234.08 1068.36,235.32 1066.94,236.57 1065.50,237.84 1064.05,239.13 1062.58,240.42 1061.10,241.74 1059.60,243.06 1058.09,244.40 1056.56,245.75 1055.02,247.12 1053.46,248.50 1051.88,249.89 1050.30,251.30 1048.69,252.72 1047.08,254.15 1045.45,255.60 1043.80,257.06 1042.14,258.53 1040.47,260.01 1038.79,261.51 1037.09,263.02 1035.37,264.54 1033.65,266.07 1031.91,267.62 1030.15,269.17 1028.39,270.74 1026.61,272.32 1024.82,273.91 1023.01,275.52 1021.20,277.13 1019.37,278.76 1017.53,280.39 1015.68,282.04 1013.81,283.70 1011.93,285.36 1010.04,287.04 1008.14,288.73 1006.23,290.43 1004.31,292.14 1002.37,293.86 1000.43,295.59 998.47,297.33 996.50,299.07 994.53,300.83 992.54,302.60 991.53,303.50" type="driving"/>
  </edge>
  <edge id="-1" from="0" to="2.1" priority="1" type="driving" shape="987.28,304.76 985.93,305.96 984.57,307.17 983.20,308.38 981.83,309.60 980.46,310.82 979.08,312.04 977.70,313.27 976.32,314.50 974.92,315.73 973.53,316.97 972.13,318.21 970.73,319.46 969.32,320.71 967.91,321.96 966.49,323.21 965.07,324.47 963.65,325.74 962.22,327.00 960.79,328.27 959.35,329.55 957.91,330.82 956.47,332.10 955.02,333.39 953.57,334.67 952.11,335.96 950.65,337.26 949.19,338.55 947.72,339.85 946.25,341.15 944.78,342.46 943.30,343.77 941.82,345.08 940.34,346.39 938.85,347.71 937.36,349.03 935.86,350.35 934.36,351.67 932.86,353.00 931.36,354.33 929.85,355.66 928.34,357.00 926.83,358.33 925.31,359.67 923.79,361.02 922.26,362.36 920.74,363.71 919.21,365.06 917.68,366.41 916.14,367.77 914.60,369.12 913.06,370.48 911.52,371.84 909.97,373.21 908.42,374.57 906.87,375.94 905.32,377.31 903.76,378.68 902.20,380.05 900.64,381.43 899.08,382.81 897.51,384.19 895.94,385.57 894.37,386.95 892.79,388.33 891.22,389.72 889.64,391.11 888.06,392.50 886.47,393.89 884.89,395.28 883.30,396.67 881.71,398.07 880.12,399.46 878.53,400.86 876.93,402.26 875.33,403.66 873.73,405.07 872.13,406.47 870.53,407.87 868.92,409.28 867.32,410.69 865.71,412.09 864.10,413.50 862.49,414.91 860.87,416.32 859.26,417.74 857.64,419.15 856.02,420.56 854.40,421.98 852.78,423.39 851.16,424.81 849.53,426.23 847.91,427.64 846.28,429.06 844.65,430.48 843.03,431.90 841.39,433.32 839.76,434.74 838.13,436.16 836.50,437.58 834.86,439.01 833.23,440.43 831.59,441.85 829.95,443.27 828.31,444.70 826.68,446.12 825.03,447.54 823.39,448.97 821.75,450.39 820.11,451.82 818.47,453.24 816.82,454.66 815.18,456.09 813.53,457.51 811.89,458.93 810.24,460.36 808.60,461.78 806.95,463.20 805.30,464.63 803.65,466.05 802.01,467.47 800.36,468.89 798.71,470.31 797.06,471.74 795.41,473.16 793.76,474.58 792.11,476.00 790.47,477.41 788.82,478.83 787.17,480.25 785.52,481.67 783.87,483.08 782.22,484.50 780.57,485.91 778.92,487.33 777.28,488.74 775.63,490.15 773.98,491.56 772.33,492.97 770.69,494.38 769.04,495.79 767.39,497.19 765.75,498.60 764.10,500.00 762.46,501.41 760.81,502.81 759.17,504.21 757.53,505.61 755.89,507.01 754.24,508.40 752.60,509.80 750.96,511.19 749.33,512.58 747.69,513.97 746.05,515.36 744.42,516.75 742.78,518.13 741.15,519.52 739.51,520.90 737.88,522.28 736.25,523.66 734.62,525.04 732.99,526.41 731.37,527.78 729.74,529.15 728.12,530.52 726.49,531.89 724.87,533.25 723.25,534.62 721.63,535.98 720.02,537.34 718.40,538.69 716.79,540.04 715.17,541.40 713.56,542.75 711.95,544.09 710.35,545.44 708.74,546.78 707.14,548.12 705.53,549.46 703.93,550.79 702.34,552.12 700.74,553.45 699.14,554.78 697.55,556.10 695.96,557.42 694.37,558.74 692.79,560.06 691.20,561.37 689.62,562.68 688.04,563.99 686.47,565.29 684.89,566.59 683.32,567.89 681.75,569.18 680.18,570.48 678.61,571.76 677.05,573.05 675.49,574.33 673.93,575.61 672.38,576.89 670.83,578.16 669.28,579.43 667.73,580.69 666.18,581.96 664.64,583.21 663.10,584.47 661.57,585.72 660.03,586.97 658.50,588.21 656.98,589.45 655.45,590.69 653.93,591.92 652.41,593.15 650.90,594.38 649.39,595.60 647.88,596.82 646.37,598.03 644.87,599.24 643.37,600.45 641.88,601.65 640.38,602.85 638.89,604.05 637.41,605.24 635.93,606.42 634.45,607.60 632.97,608.78 631.50,609.95 630.03,611.12 628.57,612.29 627.11,613.45 625.65,614.60 624.20,615.75 622.75,616.90 621.31,618.04 619.86,619.18 618.43,620.31 616.99,621.44 615.56,622.56 614.14,623.68 612.72,624.79 611.30,625.90 609.89,627.01 608.48,628.11 607.07,629.20 605.67,630.29 604.27,631.38 602.88,632.46 601.49,633.53 600.11,634.60 598.73,635.66 597.36,636.72 595.99,637.78 594.62,638.83 593.26,639.87 591.90,640.91 590.55,641.94 589.20,642.97 587.86,643.99 586.52,645.01 585.19,646.02 583.86,647.02 582.54,648.02 581.22,649.02 579.91,650.00 578.60,650.99 577.30,651.96 576.00,652.94 574.71,653.90 573.42,654.86 572.13,655.82 570.86,656.76 569.58,657.71 568.32,658.64 567.05,659.57 565.80,660.50 564.55,661.41 563.30,662.33 562.06,663.23 560.82,664.13">
    <lane id="-1_0" index="0" disallow="pedestrian tram rail_urban rail rail_electric rail_fast ship" speed="22.22" length="528.02" width="3.75" shape="970.89,331.84 969.87,332.75 968.44,334.02 967.01,335.29 965.57,336.56 964.13,337.84 962.68,339.12 961.24,340.40 959.78,341.69 958.33,342.98 956.87,344.27 955.40,345.57 953.94,346.87 952.47,348.17 950.99,349.48 949.51,350.79 948.03,352.10 946.55,353.41 945.06,354.73 943.57,356.05 942.07,357.37 940.57,358.69 939.07,360.02 937.57,361.35 936.06,362.69 934.55,364.02 933.03,365.36 931.51,366.70 929.99,368.04 928.47,369.39 926.94,370.74 925.41,372.09 923.88,373.44 922.34,374.80 920.81,376.15 919.26,377.51 917.72,378.88 916.17,380.24 914.62,381.61 913.07,382.97 911.52,384.34 909.96,385.72 908.40,387.09 906.83,388.47 905.27,389.84 903.70,391.22 902.13,392.60 900.56,393.99 898.98,395.37 897.41,396.76 895.83,398.15 894.24,399.54 892.66,400.93 891.07,402.32 889.49,403.72 887.90,405.11 886.30,406.51 884.71,407.91 883.11,409.31 881.51,410.71 879.91,412.12 878.31,413.52 876.71,414.93 875.10,416.33 873.49,417.74 871.88,419.15 870.27,420.56 868.66,421.97 867.04,423.38 865.43,424.79 863.81,426.21 862.19,427.62 860.57,429.04 858.95,430.46 857.32,431.87 855.70,433.29 854.07,434.71 852.44,436.13 850.81,437.55 849.18,438.97 847.55,440.39 845.92,441.81 844.29,443.23 842.65,444.66 841.01,446.08 839.38,447.50 837.74,448.93 836.10,450.35 834.46,451.78 832.82,453.20 831.18,454.62 829.54,456.05 827.89,457.47 826.25,458.90 824.61,460.32 822.96,461.75 821.31,463.17 819.67,464.60 818.02,466.02 816.37,467.45 814.73,468.87 813.08,470.30 811.43,471.72 809.78,473.15 808.13,474.57 806.48,475.99 804.83,477.42 803.18,478.84 801.53,480.26 799.88,481.68 798.23,483.10 796.58,484.52 794.93,485.94 793.28,487.36 791.63,488.78 789.98,490.20 788.33,491.61 786.68,493.03 785.03,494.44 783.38,495.86 781.73,497.27 780.08,498.68 778.43,500.09 776.78,501.50 775.13,502.91 773.48,504.32 771.84,505.73 770.19,507.13 768.54,508.54 766.90,509.94 765.25,511.34 763.61,512.75 761.96,514.15 760.32,515.54 758.68,516.94 757.04,518.33 755.39,519.73 753.75,521.12 752.12,522.51 750.48,523.90 748.84,525.29 747.20,526.67 745.57,528.06 743.94,529.44 742.30,530.82 740.67,532.20 739.04,533.57 737.41,534.95 735.78,536.32 734.16,537.69 732.53,539.06 730.91,540.43 729.28,541.79 727.66,543.15 726.04,544.51 724.43,545.87 722.81,547.23 721.19,548.58 719.58,549.93 717.97,551.28 716.36,552.63 714.75,553.97 713.14,555.32 711.54,556.65 709.94,557.99 708.34,559.32 706.74,560.66 705.14,561.99 703.54,563.31 701.95,564.63 700.36,565.96 698.77,567.27 697.18,568.59 695.60,569.90 694.02,571.21 692.44,572.52 690.86,573.82 689.28,575.12 687.71,576.42 686.14,577.71 684.57,579.00 683.01,580.29 681.44,581.58 679.88,582.86 678.32,584.14 676.77,585.41 675.21,586.68 673.66,587.95 672.11,589.22 670.57,590.48 669.03,591.74 667.49,592.99 665.95,594.24 664.42,595.49 662.89,596.73 661.36,597.97 659.83,599.21 658.31,600.44 656.79,601.67 655.28,602.89 653.76,604.12 652.26,605.33 650.75,606.55 649.25,607.76 647.75,608.96 646.25,610.16 644.76,611.36 643.27,612.55 641.78,613.74 640.30,614.93 638.82,616.11 637.34,617.28 635.87,618.46 634.40,619.62 632.94,620.79 631.48,621.95 630.02,623.10 628.57,624.25 627.12,625.40 625.67,626.54 624.23,627.68 622.79,628.81 621.35,629.94 619.92,631.06 618.50,632.18 617.07,633.29 615.65,634.40 614.24,635.50 612.83,636.60 611.42,637.69 610.02,638.78 608.62,639.87 607.23,640.95 605.84,642.02 604.46,643.09 603.08,644.15 601.70,645.21 600.33,646.26 598.96,647.31 597.60,648.35 596.24,649.39 594.89,650.42 593.54,651.45 592.19,652.47 590.85,653.49 589.52,654.50 588.19,655.50 586.86,656.50 585.54,657.50 584.23,658.49 582.92,659.47 581.61,660.45 580.31,661.42 579.01,662.38 577.72,663.34 576.44,664.30 575.16,665.24 573.88,666.19 572.61,667.12 571.35,668.05 570.09,668.98 568.83,669.89 567.58,670.81 566.46,671.62" type="driving"/>
    <lane id="-1_1" index="1" disallow="pedestrian tram rail_urban rail rail_electric rail_fast ship" speed="22.22" length="528.02" width="3.75" shape="968.40,329.04 967.38,329.95 965.95,331.21 964.52,332.48 963.08,333.76 961.64,335.03 960.20,336.31 958.75,337.60 957.30,338.88 955.84,340.17 954.38,341.47 952.92,342.76 951.45,344.06 949.98,345.36 948.51,346.67 947.03,347.98 945.55,349.29 944.06,350.60 942.57,351.92 941.08,353.24 939.59,354.56 938.09,355.89 936.59,357.21 935.08,358.54 933.58,359.88 932.06,361.21 930.55,362.55 929.03,363.89 927.51,365.23 925.99,366.58 924.46,367.93 922.93,369.28 921.40,370.63 919.86,371.98 918.33,373.34 916.78,374.70 915.24,376.06 913.69,377.43 912.14,378.79 910.59,380.16 909.04,381.53 907.48,382.90 905.92,384.28 904.36,385.65 902.79,387.03 901.22,388.41 899.65,389.79 898.08,391.17 896.51,392.56 894.93,393.94 893.35,395.33 891.77,396.72 890.19,398.11 888.60,399.51 887.01,400.90 885.42,402.30 883.83,403.69 882.23,405.09 880.64,406.49 879.04,407.89 877.44,409.30 875.84,410.70 874.23,412.10 872.63,413.51 871.02,414.92 869.41,416.33 867.80,417.74 866.19,419.15 864.57,420.56 862.96,421.97 861.34,423.38 859.72,424.80 858.10,426.21 856.48,427.63 854.86,429.05 853.23,430.47 851.61,431.88 849.98,433.30 848.35,434.72 846.72,436.14 845.09,437.56 843.46,438.98 841.82,440.41 840.19,441.83 838.55,443.25 836.92,444.67 835.28,446.10 833.64,447.52 832.00,448.94 830.36,450.37 828.72,451.79 827.08,453.22 825.44,454.64 823.79,456.07 822.15,457.49 820.51,458.91 818.86,460.34 817.21,461.76 815.57,463.19 813.92,464.61 812.27,466.04 810.63,467.46 808.98,468.88 807.33,470.31 805.68,471.73 804.03,473.15 802.38,474.58 800.73,476.00 799.08,477.42 797.43,478.84 795.78,480.26 794.13,481.68 792.48,483.10 790.83,484.52 789.18,485.93 787.53,487.35 785.88,488.77 784.23,490.18 782.58,491.60 780.94,493.01 779.29,494.42 777.64,495.83 775.99,497.25 774.34,498.65 772.69,500.06 771.05,501.47 769.40,502.88 767.75,504.28 766.11,505.69 764.46,507.09 762.82,508.49 761.17,509.89 759.53,511.29 757.89,512.69 756.25,514.08 754.61,515.48 752.97,516.87 751.33,518.26 749.69,519.65 748.05,521.04 746.42,522.43 744.78,523.81 743.15,525.19 741.51,526.58 739.88,527.95 738.25,529.33 736.62,530.71 734.99,532.08 733.37,533.45 731.74,534.82 730.12,536.19 728.49,537.56 726.87,538.92 725.25,540.28 723.63,541.64 722.02,543.00 720.40,544.36 718.79,545.71 717.17,547.06 715.56,548.41 713.95,549.75 712.35,551.10 710.74,552.44 709.14,553.77 707.54,555.11 705.94,556.44 704.34,557.77 702.74,559.10 701.15,560.43 699.56,561.75 697.97,563.07 696.38,564.39 694.79,565.70 693.21,567.01 691.63,568.32 690.05,569.63 688.47,570.93 686.90,572.23 685.33,573.52 683.76,574.82 682.19,576.11 680.62,577.39 679.06,578.68 677.50,579.96 675.94,581.24 674.39,582.51 672.84,583.78 671.29,585.05 669.74,586.31 668.20,587.57 666.66,588.83 665.12,590.08 663.58,591.33 662.05,592.58 660.52,593.82 659.00,595.06 657.47,596.29 655.95,597.53 654.44,598.75 652.92,599.98 651.41,601.20 649.90,602.41 648.40,603.63 646.90,604.83 645.40,606.04 643.90,607.24 642.41,608.43 640.92,609.63 639.44,610.81 637.96,612.00 636.48,613.18 635.01,614.35 633.54,615.52 632.07,616.69 630.61,617.85 629.15,619.01 627.69,620.16 626.24,621.31 624.79,622.46 623.35,623.59 621.91,624.73 620.47,625.86 619.04,626.99 617.61,628.11 616.18,629.22 614.76,630.34 613.35,631.44 611.93,632.54 610.53,633.64 609.12,634.73 607.72,635.82 606.33,636.90 604.94,637.98 603.55,639.05 602.17,640.12 600.79,641.18 599.41,642.24 598.05,643.29 596.68,644.33 595.32,645.38 593.97,646.41 592.61,647.44 591.27,648.47 589.93,649.49 588.59,650.50 587.26,651.51 585.93,652.51 584.61,653.51 583.29,654.50 581.98,655.49 580.67,656.47 579.37,657.44 578.07,658.41 576.78,659.37 575.49,660.33 574.21,661.28 572.93,662.23 571.66,663.17 570.39,664.10 569.13,665.03 567.87,665.95 566.62,666.87 565.37,667.78 564.25,668.59" type="driving"/>