<?xml version='1.0' encoding='UTF-8'?>
<!-- generated on 2022-09-25 13:19:44 by Eclipse SUMO netconvert Version 1.13.0
<configuration xmlns:xsi="http://www.w3.org/2001/XMLSchema-instance" xsi:noNamespaceSchemaLocation="http://sumo.dlr.de/xsd/netconvertConfiguration.xsd">

    <input>
        <opendrive-files value="map_new_new\11\6\6.xodr"/>
    </input>

    <output>
        <output-file value="C:\Users\LinGe\AppData\Local\Temp\tmp_4fli9ru\6.net.xml"/>
    </output>

    <processing>
        <geometry.max-grade.fix value="false"/>
    </processing>

    <tls_building>
        <tls.left-green.time value="0"/>
    </tls_building>

    <junctions>
        <rectangular-lane-cut value="true"/>
    </junctions>

    <report>
        <aggregate-warnings value="5"/>
    </report>

</configuration>
-->
<net xmlns:xsi="http://www.w3.org/2001/XMLSchema-instance" version="1.9" junctionCornerDetail="5" rectangularLaneCut="true" limitTurnSpeed="5.50" xsi:noNamespaceSchemaLocation="http://sumo.dlr.de/xsd/net_file.xsd">
  <location netOffset="58.11,209.22" convBoundary="0.00,0.00,1159.29,1410.48" origBoundary="-58.11,-209.22,1101.18,1201.26" projParameter="!"/>
  <type id="bidirectional" priority="1" speed="1.39" disallow="pedestrian tram rail_urban rail rail_electric rail_fast ship" width="3.65"/>
  <type id="border" priority="0" speed="1.39" disallow="all" discard="1" width="0.10"/>
  <type id="driving" priority="1" speed="13.89" disallow="pedestrian tram rail_urban rail rail_electric rail_fast ship" width="3.65"/>
  <type id="entry" priority="1" speed="22.22" disallow="pedestrian tram rail_urban rail rail_electric rail_fast ship" width="3.65"/>
  <type id="exit" priority="1" speed="22.22" disallow="pedestrian tram rail_urban rail rail_electric rail_fast ship" width="3.65"/>
  <type id="median" priority="0" speed="1.39" disallow="all" discard="1" width="0.10"/>
  <type id="mwyEntry" priority="1" speed="22.22" allow="private emergency authority army vip passenger hov taxi bus coach delivery truck trailer motorcycle evehicle custom1 custom2" width="3.65"/>
  <type id="mwyExit" priority="1" speed="22.22" allow="private emergency authority army vip passenger hov taxi bus coach delivery truck trailer motorcycle evehicle custom1 custom2" width="3.65"/>
  <type id="none" priority="0" speed="1.39" disallow="all" discard="1" width="1.00"/>
  <type id="offRamp" priority="1" speed="22.22" allow="private emergency authority army vip passenger hov taxi bus coach delivery truck trailer motorcycle evehicle custom1 custom2" width="3.65"/>
  <type id="onRamp" priority="1" speed="22.22" allow="private emergency authority army vip passenger hov taxi bus coach delivery truck trailer motorcycle evehicle custom1 custom2" width="3.65"/>
  <type id="parking" priority="1" speed="1.39" disallow="pedestrian tram rail_urban rail rail_electric rail_fast ship" width="2.50"/>
  <type id="rail" priority="3" speed="33.33" allow="rail_urban rail rail_electric rail_fast" width="3.65"/>
  <type id="restricted" priority="0" speed="13.89" disallow="all" width="3.65"/>
  <type id="roadWorks" priority="0" speed="1.39" allow="authority" width="3.65"/>
  <type id="shoulder" priority="0" speed="1.39" disallow="all" discard="1" width="1.00"/>
  <type id="special1" priority="1" speed="22.22" allow="custom1" discard="1" width="3.65"/>
  <type id="special2" priority="1" speed="22.22" allow="custom2" discard="1" width="3.65"/>
  <type id="special3" priority="1" speed="22.22" allow="custom1 custom2" discard="1" width="3.65"/>
  <type id="stop" priority="1" speed="13.89" disallow="pedestrian tram rail_urban rail rail_electric rail_fast ship" width="3.65"/>
  <type id="tram" priority="2" speed="13.89" allow="tram" width="3.65"/>
  <edge id=":0_0" function="internal">
    <lane id=":0_0_0" index="0" disallow="pedestrian tram rail_urban rail rail_electric rail_fast ship" speed="15.28" length="46.07" width="3.75" shape="1098.85,375.19 1089.55,384.00,0.04 1079.91,394.10,0.07 1071.80,403.07,0.11 1067.08,408.52,0.13"/>
  </edge>
  <edge id=":0_1" function="internal">
    <lane id=":0_1_0" index="0" disallow="pedestrian tram rail_urban rail rail_electric rail_fast ship" speed="22.22" length="46.19" width="3.75" shape="1098.85,375.19 1063.96,405.46"/>
    <lane id=":0_1_1" index="1" disallow="pedestrian tram rail_urban rail rail_electric rail_fast ship" speed="22.22" length="46.19" width="3.75" shape="1096.39,372.36 1061.51,402.62"/>
    <lane id=":0_1_2" index="2" disallow="pedestrian tram rail_urban rail rail_electric rail_fast ship" speed="22.22" length="46.19" width="3.75" shape="1093.94,369.52 1059.05,399.79"/>
  </edge>
  <edge id=":1_0" function="internal">
    <lane id=":1_0_0" index="0" disallow="pedestrian tram rail_urban rail rail_electric rail_fast ship" speed="9.14" length="12.13" width="3.75" shape="256.33,989.52 258.86,987.70,0.00 260.62,985.42,0.00 261.62,982.67,0.00 261.86,979.47,0.00"/>
  </edge>
  <edge id=":1_1" function="internal">
    <lane id=":1_1_0" index="0" disallow="pedestrian tram rail_urban rail rail_electric rail_fast ship" speed="22.22" length="13.34" width="3.75" shape="256.33,989.52 268.02,983.11"/>
    <lane id=":1_1_1" index="1" disallow="pedestrian tram rail_urban rail rail_electric rail_fast ship" speed="22.22" length="13.34" width="3.75" shape="258.13,992.81 269.83,986.40"/>
    <lane id=":1_1_2" index="2" disallow="pedestrian tram rail_urban rail rail_electric rail_fast ship" speed="22.22" length="13.34" width="3.75" shape="259.92,996.10 271.63,989.69"/>
  </edge>
  <edge id=":10_0" function="internal">
    <lane id=":10_0_0" index="0" disallow="pedestrian tram rail_urban rail rail_electric rail_fast ship" speed="22.22" length="70.21" width="3.75" shape="655.72,524.25,8.00 668.09,524.33,7.99 690.82,524.29,7.98 713.56,524.18,7.96 725.93,524.01,7.96"/>
  </edge>
  <edge id=":10_1" function="internal">
    <lane id=":10_1_0" index="0" disallow="pedestrian tram rail_urban rail rail_electric rail_fast ship" speed="20.83" length="69.95" width="3.75" shape="656.10,528.17,8.03 725.93,524.01,7.96"/>
  </edge>
  <edge id=":11_0" function="internal">
    <lane id=":11_0_0" index="0" disallow="pedestrian tram rail_urban rail rail_electric rail_fast ship" speed="8.33" length="58.79" width="3.75" shape="841.10,797.41,12.00 842.32,807.92,12.01 844.90,826.55,12.02 847.63,845.16,12.04 849.33,855.61,12.05"/>
  </edge>
  <edge id=":11_1" function="internal">
    <lane id=":11_1_0" index="0" disallow="pedestrian tram rail_urban rail rail_electric rail_fast ship" speed="13.89" length="58.37" width="3.75" shape="837.17,798.53,11.98 849.33,855.61,12.05"/>
  </edge>
  <edge id=":14.13_0" function="internal">
    <lane id=":14.13_0_0" index="0" disallow="pedestrian tram rail_urban rail rail_electric rail_fast ship" speed="22.22" length="0.30" width="3.75" shape="706.83,845.92,20.00 706.64,845.69,20.00"/>
    <lane id=":14.13_0_1" index="1" disallow="pedestrian tram rail_urban rail rail_electric rail_fast ship" speed="22.22" length="0.30" width="3.75" shape="709.75,843.56,20.00 709.56,843.33,20.00"/>
    <lane id=":14.13_0_2" index="2" disallow="pedestrian tram rail_urban rail rail_electric rail_fast ship" speed="22.22" length="0.30" width="3.75" shape="712.66,841.21,20.00 712.47,840.97,20.00"/>
  </edge>
  <edge id=":18.17_0" function="internal">
    <lane id=":18.17_0_0" index="0" disallow="pedestrian tram rail_urban rail rail_electric rail_fast ship" speed="8.33" length="0.29" width="3.75" shape="642.79,972.80,9.43 642.51,972.72,9.42"/>
  </edge>
  <edge id=":2_0" function="internal">
    <lane id=":2_0_0" index="0" disallow="pedestrian tram rail_urban rail rail_electric rail_fast ship" speed="22.22" length="96.78" width="3.75" shape="311.96,368.81,20.00 326.38,383.72,20.00 348.51,405.98,20.00 369.45,426.80,20.00 380.28,437.34,20.00"/>
  </edge>
  <edge id=":2_1" function="internal">
    <lane id=":2_1_0" index="0" disallow="pedestrian tram rail_urban rail rail_electric rail_fast ship" speed="22.22" length="96.92" width="3.75" shape="311.96,368.81,20.00 377.38,440.33,20.00"/>
    <lane id=":2_1_1" index="1" disallow="pedestrian tram rail_urban rail rail_electric rail_fast ship" speed="22.22" length="96.92" width="3.75" shape="309.19,371.34,20.00 374.61,442.86,20.00"/>
    <lane id=":2_1_2" index="2" disallow="pedestrian tram rail_urban rail rail_electric rail_fast ship" speed="22.22" length="96.92" width="3.75" shape="306.43,373.88,20.00 371.84,445.38,20.00"/>
  </edge>
  <edge id=":2.1_0" function="internal">
    <lane id=":2.1_0_0" index="0" disallow="pedestrian tram rail_urban rail rail_electric rail_fast ship" speed="22.22" length="0.30" width="3.75" shape="541.95,841.08 541.71,841.26"/>
    <lane id=":2.1_0_1" index="1" disallow="pedestrian tram rail_urban rail rail_electric rail_fast ship" speed="22.22" length="0.30" width="3.75" shape="539.74,838.05 539.50,838.23"/>
    <lane id=":2.1_0_2" index="2" disallow="pedestrian tram rail_urban rail rail_electric rail_fast ship" speed="22.22" length="0.30" width="3.75" shape="537.54,835.02 537.30,835.19"/>
  </edge>
  <edge id=":20.19_0" function="internal">
    <lane id=":20.19_0_0" index="0" disallow="pedestrian tram rail_urban rail rail_electric rail_fast ship" speed="22.22" length="0.30" width="3.75" shape="594.38,519.31,10.95 594.67,519.35,10.94"/>
  </edge>
  <edge id=":24.23_0" function="internal">
    <lane id=":24.23_0_0" index="0" disallow="pedestrian tram rail_urban rail rail_electric rail_fast ship" speed="8.33" length="0.28" width="3.75" shape="841.38,781.51,9.66 841.35,781.79,9.67"/>
  </edge>
  <edge id=":27.26_0" function="internal">
    <lane id=":27.26_0_0" index="0" disallow="pedestrian tram rail_urban rail rail_electric rail_fast ship" speed="11.11" length="0.29" width="3.75" shape="276.08,1320.44,13.60 275.83,1320.29,13.61"/>
  </edge>
  <edge id=":29.28_0" function="internal">
    <lane id=":29.28_0_0" index="0" disallow="pedestrian tram rail_urban rail rail_electric rail_fast ship" speed="19.44" length="0.30" width="3.75" shape="7.63,987.26,11.95 7.55,986.97,11.95"/>
  </edge>
  <edge id=":3_0" function="internal">
    <lane id=":3_0_0" index="0" disallow="pedestrian tram rail_urban rail rail_electric rail_fast ship" speed="15.28" length="93.71" width="3.75" shape="1008.11,1278.48,20.00 996.49,1261.87,20.00 978.72,1237.28,20.00 961.91,1214.31,20.00 953.17,1202.57,20.00"/>
  </edge>
  <edge id=":3_1" function="internal">
    <lane id=":3_1_0" index="0" disallow="pedestrian tram rail_urban rail rail_electric rail_fast ship" speed="22.22" length="93.79" width="3.75" shape="1008.11,1278.48,20.00 956.50,1200.18,20.00"/>
    <lane id=":3_1_1" index="1" disallow="pedestrian tram rail_urban rail rail_electric rail_fast ship" speed="22.22" length="93.79" width="3.75" shape="1011.24,1276.42,20.00 959.63,1198.11,20.00"/>
    <lane id=":3_1_2" index="2" disallow="pedestrian tram rail_urban rail rail_electric rail_fast ship" speed="22.22" length="93.79" width="3.75" shape="1014.38,1274.36,20.00 962.76,1196.04,20.00"/>
  </edge>
  <edge id=":31.30_0" function="internal">
    <lane id=":31.30_0_0" index="0" disallow="pedestrian tram rail_urban rail rail_electric rail_fast ship" speed="19.44" length="0.30" width="3.75" shape="311.35,7.65,5.98 311.64,7.58,5.99"/>
  </edge>
  <edge id=":4_0" function="internal">
    <lane id=":4_0_0" index="0" disallow="pedestrian tram rail_urban rail rail_electric rail_fast ship" speed="15.28" length="37.14" width="3.75" shape="251.50,1023.33,0.10 245.93,1025.00,0.08 237.35,1027.85,0.06 227.20,1031.77,0.03 216.89,1036.63"/>
  </edge>
  <edge id=":4_1" function="internal">
    <lane id=":4_1_0" index="0" disallow="pedestrian tram rail_urban rail rail_electric rail_fast ship" speed="22.22" length="36.50" width="3.75" shape="249.05,1019.33 216.89,1036.63"/>
    <lane id=":4_1_1" index="1" disallow="pedestrian tram rail_urban rail rail_electric rail_fast ship" speed="22.22" length="36.50" width="3.75" shape="247.26,1016.03 215.12,1033.33"/>
    <lane id=":4_1_2" index="2" disallow="pedestrian tram rail_urban rail rail_electric rail_fast ship" speed="22.22" length="36.50" width="3.75" shape="245.48,1012.74 213.35,1030.02"/>
  </edge>
  <edge id=":5_0" function="internal">
    <lane id=":5_0_0" index="0" disallow="pedestrian tram rail_urban rail rail_electric rail_fast ship" speed="10.35" length="9.72" width="3.75" shape="876.72,1119.01,16.04 875.02,1117.75,16.03 872.94,1116.87,16.02 870.48,1116.37,16.01 867.65,1116.26,16.00"/>
  </edge>
  <edge id=":5_1" function="internal">
    <lane id=":5_1_0" index="0" disallow="pedestrian tram rail_urban rail rail_electric rail_fast ship" speed="8.33" length="10.19" width="3.75" shape="876.72,1119.01,16.04 869.31,1112.01,16.00"/>
  </edge>
  <edge id=":6_0" function="internal">
    <lane id=":6_0_0" index="0" disallow="pedestrian tram rail_urban rail rail_electric rail_fast ship" speed="22.22" length="42.57" width="3.75" shape="943.63,473.39,0.00 949.37,470.00,0.00 958.55,464.14,0.00 969.04,456.87,0.00 978.68,449.30"/>
  </edge>
  <edge id=":6_1" function="internal">
    <lane id=":6_1_0" index="0" disallow="pedestrian tram rail_urban rail rail_electric rail_fast ship" speed="22.22" length="41.98" width="3.75" shape="946.92,476.76 978.68,449.30"/>
    <lane id=":6_1_1" index="1" disallow="pedestrian tram rail_urban rail rail_electric rail_fast ship" speed="22.22" length="41.98" width="3.75" shape="949.37,479.60 981.13,452.14"/>
    <lane id=":6_1_2" index="2" disallow="pedestrian tram rail_urban rail rail_electric rail_fast ship" speed="22.22" length="41.98" width="3.75" shape="951.82,482.44 983.59,454.97"/>
  </edge>
  <edge id=":6.5_0" function="internal">
    <lane id=":6.5_0_0" index="0" disallow="pedestrian tram rail_urban rail rail_electric rail_fast ship" speed="22.22" length="0.30" width="3.75" shape="528.33,822.86 528.57,822.69"/>
    <lane id=":6.5_0_1" index="1" disallow="pedestrian tram rail_urban rail rail_electric rail_fast ship" speed="22.22" length="0.30" width="3.75" shape="530.53,825.89 530.78,825.72"/>
    <lane id=":6.5_0_2" index="2" disallow="pedestrian tram rail_urban rail rail_electric rail_fast ship" speed="22.22" length="0.30" width="3.75" shape="532.74,828.93 532.98,828.75"/>
  </edge>
  <edge id=":7_0" function="internal">
    <lane id=":7_0_0" index="0" disallow="pedestrian tram rail_urban rail rail_electric rail_fast ship" speed="15.28" length="94.90" width="3.75" shape="974.59,1178.88,20.00 1023.36,1260.29,20.00"/>
  </edge>
  <edge id=":7_1" function="internal">
    <lane id=":7_1_0" index="0" disallow="pedestrian tram rail_urban rail rail_electric rail_fast ship" speed="22.22" length="94.66" width="3.75" shape="971.24,1181.26,20.00 1023.36,1260.29,20.00"/>
    <lane id=":7_1_1" index="1" disallow="pedestrian tram rail_urban rail rail_electric rail_fast ship" speed="22.22" length="94.66" width="3.75" shape="968.11,1183.33,20.00 1020.23,1262.35,20.00"/>
    <lane id=":7_1_2" index="2" disallow="pedestrian tram rail_urban rail rail_electric rail_fast ship" speed="22.22" length="94.66" width="3.75" shape="964.99,1185.40,20.00 1017.09,1264.41,20.00"/>
  </edge>
  <edge id=":8_0" function="internal">
    <lane id=":8_0_0" index="0" disallow="pedestrian tram rail_urban rail rail_electric rail_fast ship" speed="9.72" length="3.00" width="3.75" shape="877.86,695.93,7.09 876.45,698.57,7.13"/>
  </edge>
  <edge id=":8_1" function="internal">
    <lane id=":8_1_0" index="0" disallow="pedestrian tram rail_urban rail rail_electric rail_fast ship" speed="8.33" length="3.00" width="3.75" shape="877.86,695.93,7.09 876.44,698.58,7.17"/>
  </edge>
  <edge id=":9_0" function="internal">
    <lane id=":9_0_0" index="0" disallow="pedestrian tram rail_urban rail rail_electric rail_fast ship" speed="16.67" length="19.91" width="3.75" shape="248.70,343.64,20.00 248.24,339.73,20.00 247.31,335.43,20.00 245.25,330.72,20.00 241.41,325.56,20.00"/>
  </edge>
  <edge id=":9_1" function="internal">
    <lane id=":9_1_0" index="0" disallow="pedestrian tram rail_urban rail rail_electric rail_fast ship" speed="22.22" length="18.12" width="3.75" shape="253.67,338.91,20.00 241.41,325.56,20.00"/>
    <lane id=":9_1_1" index="1" disallow="pedestrian tram rail_urban rail rail_electric rail_fast ship" speed="22.22" length="18.12" width="3.75" shape="256.43,336.37,20.00 244.17,323.02,20.00"/>
    <lane id=":9_1_2" index="2" disallow="pedestrian tram rail_urban rail rail_electric rail_fast ship" speed="22.22" length="18.12" width="3.75" shape="259.19,333.84,20.00 246.93,320.49,20.00"/>
  </edge>
  <edge id=":9.10_0" function="internal">
    <lane id=":9.10_0_0" index="0" disallow="pedestrian tram rail_urban rail rail_electric rail_fast ship" speed="22.22" length="0.30" width="3.75" shape="724.34,831.39,20.00 724.53,831.63,20.00"/>
    <lane id=":9.10_0_1" index="1" disallow="pedestrian tram rail_urban rail rail_electric rail_fast ship" speed="22.22" length="0.30" width="3.75" shape="721.42,833.75,20.00 721.61,833.98,20.00"/>
    <lane id=":9.10_0_2" index="2" disallow="pedestrian tram rail_urban rail rail_electric rail_fast ship" speed="22.22" length="0.30" width="3.75" shape="718.50,836.10,20.00 718.69,836.33,20.00"/>
  </edge>
  <edge id="-0" from="0.begin" to="0" priority="1" type="driving" shape="1159.29,310.84 1158.36,311.62 1157.40,312.43 1156.42,313.26 1155.41,314.11 1154.36,314.99 1153.29,315.90 1152.20,316.83 1151.07,317.79 1149.92,318.77 1148.73,319.78 1147.53,320.81 1146.29,321.86 1145.03,322.94 1143.74,324.05 1142.43,325.17 1141.09,326.32 1139.72,327.49 1138.33,328.69 1136.91,329.91 1135.46,331.15 1134.00,332.41 1132.50,333.70 1130.98,335.00 1129.44,336.33 1127.87,337.69 1126.28,339.06 1124.67,340.45 1123.03,341.87 1121.36,343.30 1119.68,344.76 1117.97,346.24 1116.23,347.73 1114.48,349.25 1112.70,350.79 1110.90,352.35 1109.08,353.92 1107.23,355.52 1105.37,357.14 1103.48,358.77 1101.57,360.43 1099.64,362.10 1097.69,363.79 1095.72,365.50 1093.73,367.22 1091.71,368.97 1089.68,370.73">
    <lane id="-0_0" index="0" disallow="pedestrian tram rail_urban rail rail_electric rail_fast ship" speed="22.22" length="87.73" width="3.75" shape="1165.32,318.02 1164.39,318.80 1163.45,319.59 1162.47,320.42 1161.46,321.27 1160.42,322.15 1159.36,323.05 1158.26,323.98 1157.14,324.93 1155.99,325.91 1154.82,326.91 1153.61,327.94 1152.38,328.99 1151.12,330.07 1149.84,331.17 1148.53,332.29 1147.19,333.44 1145.82,334.61 1144.43,335.80 1143.02,337.02 1141.58,338.26 1140.11,339.52 1138.62,340.80 1137.10,342.11 1135.56,343.44 1133.99,344.79 1132.40,346.16 1130.79,347.55 1129.15,348.96 1127.49,350.40 1125.81,351.85 1124.10,353.33 1122.37,354.83 1120.61,356.34 1118.83,357.88 1117.04,359.44 1115.21,361.01 1113.37,362.61 1111.51,364.22 1109.62,365.86 1107.71,367.51 1105.78,369.18 1103.83,370.87 1101.86,372.58 1099.87,374.31 1098.85,375.19" type="driving"/>
    <lane id="-0_1" index="1" disallow="pedestrian tram rail_urban rail rail_electric rail_fast ship" speed="22.22" length="87.73" width="3.75" shape="1162.91,315.15 1161.98,315.93 1161.03,316.73 1160.05,317.55 1159.04,318.41 1158.00,319.29 1156.93,320.19 1155.84,321.12 1154.71,322.08 1153.56,323.06 1152.38,324.06 1151.18,325.09 1149.95,326.14 1148.69,327.22 1147.40,328.32 1146.09,329.44 1144.75,330.59 1143.38,331.76 1141.99,332.96 1140.57,334.17 1139.13,335.41 1137.66,336.68 1136.17,337.96 1134.65,339.27 1133.11,340.60 1131.55,341.95 1129.95,343.32 1128.34,344.71 1126.70,346.12 1125.04,347.56 1123.35,349.02 1121.65,350.49 1119.91,351.99 1118.16,353.51 1116.38,355.04 1114.58,356.60 1112.76,358.18 1110.92,359.77 1109.05,361.39 1107.16,363.02 1105.25,364.68 1103.32,366.35 1101.37,368.04 1099.40,369.75 1097.41,371.47 1096.39,372.36" type="driving"/>
    <lane id="-0_2" index="2" disallow="pedestrian tram rail_urban rail rail_electric rail_fast ship" speed="22.22" length="87.73" width="3.75" shape="1160.49,312.28 1159.57,313.06 1158.61,313.86 1157.63,314.69 1156.62,315.54 1155.58,316.43 1154.51,317.33 1153.41,318.26 1152.28,319.22 1151.13,320.20 1149.95,321.21 1148.74,322.24 1147.51,323.29 1146.25,324.37 1144.96,325.47 1143.65,326.60 1142.31,327.74 1140.94,328.92 1139.55,330.11 1138.13,331.33 1136.69,332.57 1135.22,333.83 1133.72,335.12 1132.21,336.43 1130.66,337.75 1129.10,339.11 1127.51,340.48 1125.89,341.87 1124.25,343.29 1122.59,344.72 1120.90,346.18 1119.19,347.66 1117.46,349.15 1115.71,350.67 1113.93,352.21 1112.13,353.77 1110.31,355.34 1108.46,356.94 1106.60,358.55 1104.71,360.19 1102.80,361.84 1100.87,363.51 1098.92,365.21 1096.95,366.91 1094.95,368.64 1093.94,369.52" type="driving"/>
  </edge>
  <edge id="-1" from="0" to="2.1" priority="1" type="driving" shape="1089.68,370.73 1088.51,371.75 1087.34,372.76 1086.16,373.79 1084.97,374.82 1083.78,375.85 1082.58,376.89 1081.37,377.94 1080.16,378.99 1078.94,380.05 1077.72,381.11 1076.49,382.18 1075.25,383.25 1074.01,384.33 1072.76,385.41 1071.50,386.50 1070.24,387.59 1068.98,388.69 1067.70,389.80 1066.43,390.90 1065.14,392.02 1063.85,393.14 1062.56,394.26 1061.26,395.39 1059.95,396.53 1058.64,397.66 1057.32,398.81 1056.00,399.96 1054.67,401.11 1053.33,402.27 1051.99,403.43 1050.65,404.60 1049.30,405.77 1047.94,406.95 1046.58,408.13 1045.21,409.31 1043.84,410.50 1042.47,411.70 1041.08,412.89 1039.70,414.10 1038.31,415.31 1036.91,416.52 1035.51,417.73 1034.10,418.95 1032.69,420.18 1031.27,421.41 1029.85,422.64 1028.42,423.88 1026.99,425.12 1025.56,426.36 1024.12,427.61 1022.67,428.86 1021.22,430.12 1019.77,431.38 1018.31,432.65 1016.85,433.92 1015.38,435.19 1013.91,436.46 1012.43,437.74 1010.95,439.03 1009.47,440.31 1007.98,441.60 1006.48,442.90 1004.98,444.20 1003.48,445.50 1001.98,446.80 1000.47,448.11 998.95,449.42 997.43,450.74 995.91,452.06 994.39,453.38 992.86,454.70 991.32,456.03 989.78,457.36 988.24,458.70 986.70,460.03 985.15,461.37 983.60,462.72 982.04,464.06 980.48,465.41 978.92,466.77 977.35,468.12 975.78,469.48 974.20,470.84 972.63,472.20 971.05,473.57 969.46,474.94 967.88,476.31 966.28,477.69 964.69,479.07 963.09,480.45 961.49,481.83 959.89,483.21 958.28,484.60 956.67,485.99 955.06,487.38 953.45,488.78 951.83,490.18 950.21,491.58 948.58,492.98 946.95,494.38 945.32,495.79 943.69,497.20 942.06,498.61 940.42,500.02 938.78,501.44 937.13,502.85 935.49,504.27 933.84,505.69 932.19,507.12 930.54,508.54 928.88,509.97 927.22,511.40 925.56,512.83 923.90,514.26 922.23,515.69 920.57,517.13 918.90,518.57 917.22,520.00 915.55,521.44 913.88,522.89 912.20,524.33 910.52,525.77 908.84,527.22 907.15,528.67 905.47,530.12 903.78,531.57 902.09,533.02 900.40,534.47 898.70,535.93 897.01,537.38 895.31,538.84 893.61,540.30 891.91,541.76 890.21,543.22 888.51,544.68 886.81,546.14 885.10,547.60 883.39,549.07 881.68,550.53 879.97,552.00 878.26,553.47 876.55,554.93 874.84,556.40 873.12,557.87 871.41,559.34 869.69,560.81 867.97,562.28 866.25,563.75 864.53,565.22 862.81,566.70 861.09,568.17 859.36,569.64 857.64,571.12 855.91,572.59 854.19,574.06 852.46,575.54 850.73,577.01 849.01,578.49 847.28,579.97 845.55,581.44 843.82,582.92 842.09,584.39 840.36,585.87 838.63,587.34 836.89,588.82 835.16,590.30 833.43,591.77 831.70,593.25 829.96,594.72 828.23,596.20 826.50,597.67 824.76,599.15 823.03,600.62 821.30,602.10 819.56,603.57 817.83,605.05 816.09,606.52 814.36,607.99 812.63,609.46 810.89,610.94 809.16,612.41 807.42,613.88 805.69,615.35 803.96,616.82 802.23,618.28 800.49,619.75 798.76,621.22 797.03,622.68 795.30,624.15 793.57,625.61 791.84,627.08 790.11,628.54 788.38,630.00 786.65,631.46 784.93,632.92 783.20,634.38 781.47,635.84 779.75,637.29 778.02,638.75 776.30,640.20 774.58,641.66 772.86,643.11 771.14,644.56 769.42,646.00 767.70,647.45 765.98,648.90 764.26,650.34 762.55,651.78 760.84,653.23 759.12,654.66 757.41,656.10 755.70,657.54 753.99,658.97 752.28,660.41 750.58,661.84 748.87,663.27 747.17,664.69 745.47,666.12 743.77,667.54 742.07,668.97 740.37,670.39 738.68,671.80 736.99,673.22 735.29,674.63 733.61,676.04 731.92,677.45 730.23,678.86 728.55,680.27 726.86,681.67 725.18,683.07 723.51,684.47 721.83,685.87 720.16,687.26 718.48,688.65 716.81,690.04 715.15,691.43 713.48,692.81 711.82,694.19 710.16,695.57 708.50,696.95 706.84,698.32 705.19,699.69 703.54,701.06 701.89,702.42 700.24,703.78 698.60,705.14 696.96,706.50 695.32,707.86 693.68,709.21 692.05,710.55 690.42,711.90 688.79,713.24 687.17,714.58 685.55,715.92 683.93,717.25 682.31,718.58 680.70,719.90 679.09,721.23 677.48,722.55 675.88,723.86 674.28,725.18 672.68,726.49 671.09,727.79 669.50,729.09 667.91,730.39 666.32,731.69 664.74,732.98 663.16,734.27 661.59,735.56 660.02,736.84 658.45,738.11 656.89,739.39 655.33,740.66 653.77,741.92 652.22,743.19 650.67,744.45 649.12,745.70 647.58,746.95 646.04,748.20 644.51,749.44 642.98,750.68 641.45,751.91 639.93,753.14 638.41,754.37 636.89,755.59 635.38,756.81 633.88,758.03 632.37,759.23 630.88,760.44 629.38,761.64 627.89,762.84 626.41,764.03 624.93,765.22 623.45,766.40 621.98,767.58 620.51,768.75 619.04,769.92 617.58,771.09 616.13,772.25 614.68,773.40 613.23,774.55 611.79,775.70 610.36,776.84 608.93,777.97 607.50,779.11 606.08,780.23 604.66,781.35 603.25,782.47 601.84,783.58 600.44,784.69 599.04,785.79 597.65,786.88 596.26,787.98 594.88,789.06 593.50,790.14 592.13,791.22 590.76,792.29 589.40,793.35 588.04,794.41 586.69,795.46 585.35,796.51 584.01,797.56 582.67,798.59 581.34,799.62 580.02,800.65 578.70,801.67 577.39,802.69 576.08,803.70 574.78,804.70 573.48,805.70 572.19,806.69 570.90,807.68 569.63,808.66 568.35,809.63 567.09,810.60 565.82,811.56 564.57,812.52 563.32,813.47 562.08,814.41 560.84,815.35 559.61,816.28 558.38,817.21 557.16,818.13 555.95,819.04 554.74,819.95 553.54,820.85 552.35,821.75 551.16,822.64 549.98,823.52 548.81,824.39 547.64,825.26 546.48,826.13 545.32,826.98 544.17,827.83 543.03,828.67 541.89,829.51 540.76,830.34 539.64,831.16 538.53,831.98 537.42,832.79 536.32,833.59">