<?xml version='1.0' encoding='UTF-8'?>
<!-- generated on 2022-11-13 00:13:49 by Eclipse SUMO netconvert Version 1.13.0
<configuration xmlns:xsi="http://www.w3.org/2001/XMLSchema-instance" xsi:noNamespaceSchemaLocation="http://sumo.dlr.de/xsd/netconvertConfiguration.xsd">

    <input>
        <opendrive-files value="map_v4\19\37\37.xodr"/>
    </input>

    <output>
        <output-file value="C:\Users\LinGe\AppData\Local\Temp\tmpyuy9yhz2\37.net.xml"/>
    </output>

    <processing>
        <geometry.max-grade.fix value="false"/>
    </processing>

    <tls_building>
        <tls.left-green.time value="0"/>
    </tls_building>

    <junctions>
        <rectangular-lane-cut value="true"/>
    </junctions>

    <report>
        <aggregate-warnings value="5"/>
    </report>

</configuration>
-->
<net xmlns:xsi="http://www.w3.org/2001/XMLSchema-instance" version="1.9" junctionCornerDetail="5" rectangularLaneCut="true" limitTurnSpeed="5.50" xsi:noNamespaceSchemaLocation="http://sumo.dlr.de/xsd/net_file.xsd">
  <location netOffset="1.56,101.26" convBoundary="0.00,0.00,1102.73,1302.51" origBoundary="-1.56,-101.26,1101.18,1201.26" projParameter="!"/>
  <type id="bidirectional" priority="1" speed="1.39" disallow="pedestrian tram rail_urban rail rail_electric rail_fast ship" width="3.65"/>
  <type id="border" priority="0" speed="1.39" disallow="all" discard="1" width="0.10"/>
  <type id="driving" priority="1" speed="13.89" disallow="pedestrian tram rail_urban rail rail_electric rail_fast ship" width="3.65"/>
  <type id="entry" priority="1" speed="22.22" disallow="pedestrian tram rail_urban rail rail_electric rail_fast ship" width="3.65"/>
  <type id="exit" priority="1" speed="22.22" disallow="pedestrian tram rail_urban rail rail_electric rail_fast ship" width="3.65"/>
  <type id="median" priority="0" speed="1.39" disallow="all" discard="1" width="0.10"/>
  <type id="mwyEntry" priority="1" speed="22.22" allow="private emergency authority army vip passenger hov taxi bus coach delivery truck trailer motorcycle evehicle custom1 custom2" width="3.65"/>
  <type id="mwyExit" priority="1" speed="22.22" allow="private emergency authority army vip passenger hov taxi bus coach delivery truck trailer motorcycle evehicle custom1 custom2" width="3.65"/>
  <type id="none" priority="0" speed="1.39" disallow="all" discard="1" width="1.00"/>
  <type id="offRamp" priority="1" speed="22.22" allow="private emergency authority army vip passenger hov taxi bus coach delivery truck trailer motorcycle evehicle custom1 custom2" width="3.65"/>
  <type id="onRamp" priority="1" speed="22.22" allow="private emergency authority army vip passenger hov taxi bus coach delivery truck trailer motorcycle evehicle custom1 custom2" width="3.65"/>
  <type id="parking" priority="1" speed="1.39" disallow="pedestrian tram rail_urban rail rail_electric rail_fast ship" width="2.50"/>
  <type id="rail" priority="3" speed="33.33" allow="rail_urban rail rail_electric rail_fast" width="3.65"/>
  <type id="restricted" priority="0" speed="13.89" disallow="all" width="3.65"/>
  <type id="roadWorks" priority="0" speed="1.39" allow="authority" width="3.65"/>
  <type id="shoulder" priority="0" speed="1.39" disallow="all" discard="1" width="1.00"/>
  <type id="special1" priority="1" speed="22.22" allow="custom1" discard="1" width="3.65"/>
  <type id="special2" priority="1" speed="22.22" allow="custom2" discard="1" width="3.65"/>
  <type id="special3" priority="1" speed="22.22" allow="custom1 custom2" discard="1" width="3.65"/>
  <type id="stop" priority="1" speed="13.89" disallow="pedestrian tram rail_urban rail rail_electric rail_fast ship" width="3.65"/>
  <type id="tram" priority="2" speed="13.89" allow="tram" width="3.65"/>
  <edge id=":0_0" function="internal">
    <lane id=":0_0_0" index="0" disallow="pedestrian tram rail_urban rail rail_electric rail_fast ship" speed="22.22" length="74.16" width="3.75" shape="951.45,357.30 899.71,410.42"/>
  </edge>
  <edge id=":0_1" function="internal">
    <lane id=":0_1_0" index="0" disallow="pedestrian tram rail_urban rail rail_electric rail_fast ship" speed="22.22" length="74.27" width="3.75" shape="951.45,357.30 896.76,407.61"/>
    <lane id=":0_1_1" index="1" disallow="pedestrian tram rail_urban rail rail_electric rail_fast ship" speed="22.22" length="74.27" width="3.75" shape="948.90,354.55 894.24,404.84"/>
    <lane id=":0_1_2" index="2" disallow="pedestrian tram rail_urban rail rail_electric rail_fast ship" speed="22.22" length="74.27" width="3.75" shape="946.34,351.81 891.72,402.06"/>
  </edge>
  <edge id=":1_0" function="internal">
    <lane id=":1_0_0" index="0" disallow="pedestrian tram rail_urban rail rail_electric rail_fast ship" speed="16.67" length="134.97" width="3.75" shape="124.44,109.62,20.00 222.10,202.78,20.00"/>
  </edge>
  <edge id=":1_1" function="internal">
    <lane id=":1_1_0" index="0" disallow="pedestrian tram rail_urban rail rail_electric rail_fast ship" speed="22.22" length="135.07" width="3.75" shape="124.44,109.62,20.00 219.38,205.72,20.00"/>
    <lane id=":1_1_1" index="1" disallow="pedestrian tram rail_urban rail rail_electric rail_fast ship" speed="22.22" length="135.07" width="3.75" shape="121.78,112.26,20.00 216.71,208.35,20.00"/>
    <lane id=":1_1_2" index="2" disallow="pedestrian tram rail_urban rail rail_electric rail_fast ship" speed="22.22" length="135.07" width="3.75" shape="119.12,114.90,20.00 214.03,210.98,20.00"/>
  </edge>
  <edge id=":13.12_0" function="internal">
    <lane id=":13.12_0_0" index="0" disallow="pedestrian tram rail_urban rail rail_electric rail_fast ship" speed="11.11" length="0.30" width="3.75" shape="706.08,443.19,6.53 706.37,443.25,6.52"/>
  </edge>
  <edge id=":15.14_0" function="internal">
    <lane id=":15.14_0_0" index="0" disallow="pedestrian tram rail_urban rail rail_electric rail_fast ship" speed="22.22" length="0.30" width="3.75" shape="474.28,582.62,9.97 473.99,582.55,9.97"/>
  </edge>
  <edge id=":2_0" function="internal">
    <lane id=":2_0_0" index="0" disallow="pedestrian tram rail_urban rail rail_electric rail_fast ship" speed="16.67" length="97.76" width="3.75" shape="916.56,353.06,0.00 928.27,343.26,0.00 951.01,323.90,0.00 975.04,303.18,0.00 990.66,289.30"/>
  </edge>
  <edge id=":2_1" function="internal">
    <lane id=":2_1_0" index="0" disallow="pedestrian tram rail_urban rail rail_electric rail_fast ship" speed="22.22" length="97.55" width="3.75" shape="919.50,355.96 990.66,289.30"/>
    <lane id=":2_1_1" index="1" disallow="pedestrian tram rail_urban rail rail_electric rail_fast ship" speed="22.22" length="97.55" width="3.75" shape="922.04,358.71 993.24,292.03"/>
    <lane id=":2_1_2" index="2" disallow="pedestrian tram rail_urban rail rail_electric rail_fast ship" speed="22.22" length="97.55" width="3.75" shape="924.59,361.46 995.81,294.75"/>
  </edge>
  <edge id=":2.1_0" function="internal">
    <lane id=":2.1_0_0" index="0" disallow="pedestrian tram rail_urban rail rail_electric rail_fast ship" speed="22.22" length="0.30" width="3.75" shape="688.44,580.77 688.19,580.95"/>
    <lane id=":2.1_0_1" index="1" disallow="pedestrian tram rail_urban rail rail_electric rail_fast ship" speed="22.22" length="0.30" width="3.75" shape="686.23,577.74 685.99,577.91"/>
    <lane id=":2.1_0_2" index="2" disallow="pedestrian tram rail_urban rail rail_electric rail_fast ship" speed="22.22" length="0.30" width="3.75" shape="684.02,574.71 683.78,574.88"/>
  </edge>
  <edge id=":3_0" function="internal">
    <lane id=":3_0_0" index="0" disallow="pedestrian tram rail_urban rail rail_electric rail_fast ship" speed="22.22" length="28.40" width="3.75" shape="161.25,186.77,19.97 159.35,182.58,19.97 156.39,177.07,19.98 151.96,170.53,19.99 145.61,163.27,20.00"/>
  </edge>
  <edge id=":3_1" function="internal">
    <lane id=":3_1_0" index="0" disallow="pedestrian tram rail_urban rail rail_electric rail_fast ship" speed="22.22" length="27.37" width="3.75" shape="164.85,182.73,20.00 145.61,163.27,20.00"/>
    <lane id=":3_1_1" index="1" disallow="pedestrian tram rail_urban rail rail_electric rail_fast ship" speed="22.22" length="27.37" width="3.75" shape="167.51,180.10,20.00 148.28,160.63,20.00"/>
    <lane id=":3_1_2" index="2" disallow="pedestrian tram rail_urban rail rail_electric rail_fast ship" speed="22.22" length="27.37" width="3.75" shape="170.18,177.46,20.00 150.94,158.00,20.00"/>
  </edge>
  <edge id=":4.3_0" function="internal">
    <lane id=":4.3_0_0" index="0" disallow="pedestrian tram rail_urban rail rail_electric rail_fast ship" speed="22.22" length="0.30" width="3.75" shape="674.81,562.55 675.05,562.37"/>
    <lane id=":4.3_0_1" index="1" disallow="pedestrian tram rail_urban rail rail_electric rail_fast ship" speed="22.22" length="0.30" width="3.75" shape="677.02,565.58 677.26,565.41"/>
    <lane id=":4.3_0_2" index="2" disallow="pedestrian tram rail_urban rail rail_electric rail_fast ship" speed="22.22" length="0.30" width="3.75" shape="679.22,568.62 679.47,568.44"/>
  </edge>
  <edge id=":8.7_0" function="internal">
    <lane id=":8.7_0_0" index="0" disallow="pedestrian tram rail_urban rail rail_electric rail_fast ship" speed="22.22" length="0.30" width="3.75" shape="518.67,528.52,20.00 518.86,528.76,20.00"/>
    <lane id=":8.7_0_1" index="1" disallow="pedestrian tram rail_urban rail rail_electric rail_fast ship" speed="22.22" length="0.30" width="3.75" shape="515.75,530.88,20.00 515.94,531.11,20.00"/>
    <lane id=":8.7_0_2" index="2" disallow="pedestrian tram rail_urban rail rail_electric rail_fast ship" speed="22.22" length="0.30" width="3.75" shape="512.84,533.24,20.00 513.02,533.47,20.00"/>
  </edge>
  <edge id=":9.10_0" function="internal">
    <lane id=":9.10_0_0" index="0" disallow="pedestrian tram rail_urban rail rail_electric rail_fast ship" speed="22.22" length="0.30" width="3.75" shape="501.16,543.05,20.00 500.97,542.82,20.00"/>
    <lane id=":9.10_0_1" index="1" disallow="pedestrian tram rail_urban rail rail_electric rail_fast ship" speed="22.22" length="0.30" width="3.75" shape="504.08,540.69,20.00 503.89,540.46,20.00"/>
    <lane id=":9.10_0_2" index="2" disallow="pedestrian tram rail_urban rail rail_electric rail_fast ship" speed="22.22" length="0.30" width="3.75" shape="506.99,538.34,20.00 506.80,538.10,20.00"/>
  </edge>
  <edge id="-0" from="0.begin" to="0" priority="1" type="driving" shape="1102.73,202.87 1101.78,203.71 1100.82,204.57 1099.84,205.43 1098.86,206.31 1097.86,207.20 1096.85,208.11 1095.83,209.02 1094.80,209.95 1093.76,210.89 1092.71,211.84 1091.65,212.80 1090.58,213.78 1089.49,214.77 1088.40,215.76 1087.29,216.78 1086.17,217.80 1085.05,218.83 1083.91,219.88 1082.76,220.93 1081.60,222.00 1080.43,223.08 1079.25,224.17 1078.07,225.27 1076.87,226.38 1075.66,227.50 1074.44,228.63 1073.21,229.77 1071.97,230.93 1070.72,232.09 1069.46,233.26 1068.19,234.45 1066.91,235.64 1065.63,236.85 1064.33,238.06 1063.02,239.29 1061.71,240.52 1060.38,241.77 1059.04,243.02 1057.70,244.28 1056.35,245.55 1054.98,246.84 1053.61,248.13 1052.23,249.43 1050.84,250.74 1049.44,252.06 1048.03,253.39 1046.62,254.72 1045.19,256.07 1043.76,257.42 1042.32,258.78 1040.87,260.16 1039.41,261.54 1037.94,262.92 1036.46,264.32 1034.98,265.72 1033.48,267.14 1031.98,268.56 1030.47,269.99 1028.95,271.42 1027.43,272.87 1025.89,274.32 1024.35,275.78 1022.80,277.25 1021.25,278.72 1019.68,280.21 1018.11,281.69 1016.53,283.19 1014.94,284.70 1013.34,286.21 1011.74,287.72 1010.13,289.25 1008.51,290.78 1006.89,292.32 1005.25,293.86 1003.61,295.41 1001.97,296.97 1000.31,298.54 998.65,300.11 996.98,301.68 995.31,303.26 993.63,304.85 991.94,306.45 990.24,308.05 988.54,309.65 986.83,311.27 985.12,312.88 983.39,314.51 981.67,316.13 979.93,317.77 978.19,319.41 976.44,321.05 974.69,322.70 972.93,324.36 971.17,326.01 969.39,327.68 967.62,329.35 965.83,331.02 964.04,332.70 962.25,334.38 960.45,336.07 958.64,337.76 956.83,339.45 955.01,341.15 953.19,342.86 951.36,344.57 949.53,346.28 947.69,347.99 945.84,349.71 943.99,351.43 942.14,353.16">
    <lane id="-0_0" index="0" disallow="pedestrian tram rail_urban rail rail_electric rail_fast ship" speed="22.22" length="215.81" width="3.75" shape="1108.94,209.90 1107.99,210.74 1107.04,211.58 1106.08,212.44 1105.10,213.31 1104.11,214.19 1103.11,215.08 1102.10,215.99 1101.08,216.91 1100.05,217.84 1099.00,218.79 1097.95,219.75 1096.88,220.71 1095.80,221.70 1094.72,222.69 1093.62,223.69 1092.51,224.71 1091.38,225.74 1090.25,226.78 1089.11,227.83 1087.96,228.89 1086.79,229.96 1085.62,231.05 1084.43,232.15 1083.24,233.25 1082.03,234.37 1080.82,235.50 1079.59,236.64 1078.36,237.79 1077.11,238.95 1075.86,240.12 1074.59,241.30 1073.32,242.49 1072.03,243.69 1070.74,244.91 1069.43,246.13 1068.12,247.36 1066.80,248.60 1065.46,249.85 1064.12,251.11 1062.77,252.38 1061.41,253.66 1060.04,254.95 1058.66,256.25 1057.27,257.56 1055.87,258.88 1054.47,260.20 1053.05,261.54 1051.63,262.88 1050.20,264.24 1048.75,265.60 1047.30,266.97 1045.85,268.35 1044.38,269.74 1042.90,271.13 1041.42,272.53 1039.93,273.95 1038.43,275.37 1036.92,276.80 1035.40,278.23 1033.87,279.68 1032.34,281.13 1030.80,282.59 1029.25,284.06 1027.69,285.53 1026.13,287.01 1024.55,288.50 1022.97,290.00 1021.38,291.50 1019.79,293.01 1018.18,294.53 1016.57,296.06 1014.95,297.59 1013.33,299.13 1011.70,300.67 1010.05,302.22 1008.41,303.78 1006.75,305.35 1005.09,306.92 1003.42,308.50 1001.75,310.08 1000.06,311.67 998.37,313.26 996.68,314.87 994.97,316.47 993.26,318.09 991.55,319.70 989.82,321.33 988.10,322.96 986.36,324.59 984.62,326.23 982.87,327.88 981.11,329.53 979.35,331.19 977.59,332.85 975.81,334.51 974.03,336.18 972.25,337.86 970.46,339.54 968.66,341.22 966.86,342.91 965.05,344.60 963.23,346.30 961.41,348.00 959.59,349.71 957.76,351.42 955.92,353.13 954.08,354.85 952.23,356.57 951.45,357.30" type="driving"/>
    <lane id="-0_1" index="1" disallow="pedestrian tram rail_urban rail rail_electric rail_fast ship" speed="22.22" length="215.81" width="3.75" shape="1106.46,207.09 1105.51,207.93 1104.55,208.77 1103.58,209.64 1102.60,210.51 1101.61,211.39 1100.61,212.29 1099.60,213.20 1098.57,214.13 1097.53,215.06 1096.49,216.01 1095.43,216.97 1094.36,217.94 1093.28,218.92 1092.19,219.92 1091.09,220.93 1089.97,221.94 1088.85,222.97 1087.71,224.02 1086.57,225.07 1085.42,226.13 1084.25,227.21 1083.07,228.30 1081.89,229.39 1080.69,230.50 1079.48,231.62 1078.27,232.75 1077.04,233.89 1075.80,235.04 1074.56,236.20 1073.30,237.38 1072.03,238.56 1070.76,239.75 1069.47,240.96 1068.17,242.17 1066.87,243.39 1065.55,244.62 1064.23,245.87 1062.90,247.12 1061.55,248.38 1060.20,249.65 1058.84,250.93 1057.47,252.22 1056.09,253.52 1054.70,254.83 1053.30,256.15 1051.89,257.48 1050.48,258.81 1049.05,260.16 1047.62,261.51 1046.18,262.87 1044.73,264.24 1043.27,265.62 1041.80,267.01 1040.33,268.41 1038.84,269.81 1037.35,271.22 1035.85,272.64 1034.34,274.07 1032.82,275.51 1031.30,276.95 1029.76,278.41 1028.22,279.87 1026.67,281.33 1025.11,282.81 1023.55,284.29 1021.97,285.78 1020.39,287.28 1018.81,288.78 1017.21,290.29 1015.61,291.81 1014.00,293.33 1012.38,294.87 1010.75,296.40 1009.12,297.95 1007.48,299.50 1005.83,301.06 1004.18,302.62 1002.51,304.19 1000.85,305.77 999.17,307.35 997.49,308.94 995.80,310.54 994.10,312.14 992.40,313.75 990.69,315.36 988.98,316.98 987.25,318.60 985.52,320.23 983.79,321.86 982.05,323.50 980.30,325.15 978.54,326.80 976.78,328.45 975.02,330.11 973.25,331.78 971.47,333.45 969.68,335.12 967.89,336.80 966.10,338.49 964.29,340.17 962.49,341.87 960.67,343.56 958.85,345.26 957.03,346.97 955.20,348.68 953.36,350.39 951.52,352.11 949.68,353.83 948.90,354.55" type="driving"/>
    <lane id="-0_2" index="2" disallow="pedestrian tram rail_urban rail rail_electric rail_fast ship" speed="22.22" length="215.81" width="3.75" shape="1103.97,204.28 1103.02,205.12 1102.06,205.97 1101.09,206.83 1100.11,207.71 1099.11,208.60 1098.11,209.50 1097.09,210.42 1096.06,211.34 1095.02,212.28 1093.97,213.23 1092.91,214.19 1091.84,215.17 1090.75,216.15 1089.66,217.15 1088.55,218.16 1087.44,219.18 1086.31,220.21 1085.18,221.26 1084.03,222.31 1082.87,223.38 1081.71,224.45 1080.53,225.54 1079.34,226.64 1078.14,227.75 1076.93,228.87 1075.71,230.00 1074.49,231.15 1073.25,232.30 1072.00,233.46 1070.74,234.64 1069.47,235.82 1068.19,237.01 1066.91,238.22 1065.61,239.43 1064.30,240.65 1062.99,241.89 1061.66,243.13 1060.33,244.39 1058.98,245.65 1057.63,246.92 1056.27,248.20 1054.90,249.49 1053.52,250.79 1052.13,252.10 1050.73,253.42 1049.32,254.75 1047.91,256.09 1046.48,257.43 1045.05,258.78 1043.60,260.15 1042.15,261.52 1040.69,262.90 1039.23,264.29 1037.75,265.68 1036.26,267.09 1034.77,268.50 1033.27,269.92 1031.76,271.35 1030.24,272.79 1028.72,274.23 1027.18,275.68 1025.64,277.14 1024.09,278.61 1022.53,280.08 1020.97,281.57 1019.40,283.06 1017.82,284.55 1016.23,286.06 1014.63,287.57 1013.03,289.09 1011.42,290.61 1009.80,292.14 1008.17,293.68 1006.54,295.22 1004.90,296.78 1003.25,298.33 1001.60,299.90 999.94,301.47 998.27,303.04 996.60,304.63 994.91,306.22 993.22,307.81 991.53,309.41 989.83,311.02 988.12,312.63 986.40,314.25 984.68,315.87 982.95,317.50 981.22,319.13 979.48,320.77 977.73,322.42 975.98,324.07 974.22,325.72 972.45,327.38 970.68,329.05 968.90,330.71 967.12,332.39 965.33,334.07 963.53,335.75 961.73,337.44 959.92,339.13 958.11,340.82 956.29,342.52 954.47,344.23 952.64,345.94 950.80,347.65 948.96,349.36 947.12,351.08 946.34,351.81" type="driving"/>
  </edge>
  <edge id="-1" from="0" to="2.1" priority="1" type="driving" shape="942.14,353.16 940.74,354.45 939.35,355.75 937.95,357.05 936.55,358.35 935.15,359.65 933.75,360.95 932.34,362.26 930.93,363.56 929.52,364.87 928.10,366.18 926.68,367.49 925.26,368.80 923.84,370.12 922.41,371.43 920.98,372.75 919.55,374.07 918.12,375.39 916.68,376.71 915.24,378.03 913.80,379.36 912.36,380.68 910.91,382.01 909.46,383.34 908.01,384.67 906.56,386.00 905.11,387.33 903.65,388.66 902.19,389.99 900.73,391.33 899.27,392.66 897.80,394.00 896.33,395.33 894.86,396.67 893.39,398.01 891.92,399.35 890.44,400.69 888.96,402.03 887.48,403.37 886.00,404.71 884.52,406.05 883.03,407.39 881.54,408.74 880.05,410.08 878.56,411.43 877.07,412.77 875.57,414.11 874.08,415.46 872.58,416.81 871.08,418.15 869.58,419.50 868.07,420.84 866.57,422.19 865.06,423.54 863.55,424.88 862.04,426.23 860.53,427.58 859.02,428.92 857.51,430.27 855.99,431.61 854.47,432.96 852.95,434.31 851.43,435.65 849.91,437.00 848.39,438.34 846.87,439.69 845.34,441.03 843.81,442.38 842.29,443.72 840.76,445.06 839.23,446.41 837.70,447.75 836.16,449.09 834.63,450.43 833.09,451.77 831.56,453.11 830.02,454.45 828.48,455.79 826.95,457.13 825.41,458.47 823.86,459.80 822.32,461.14 820.78,462.47 819.24,463.80 817.69,465.14 816.15,466.47 814.60,467.80 813.05,469.13 811.51,470.46 809.96,471.78 808.41,473.11 806.86,474.43 805.31,475.76 803.76,477.08 802.21,478.40 800.65,479.72 799.10,481.04 797.55,482.35 795.99,483.67 794.44,484.98 792.88,486.29 791.33,487.60 789.77,488.91 788.22,490.22 786.66,491.52 785.10,492.83 783.55,494.13 781.99,495.43 780.43,496.73 778.87,498.02 777.32,499.32 775.76,500.61 774.20,501.90 772.64,503.19 771.08,504.48 769.52,505.76 767.96,507.04 766.40,508.32 764.85,509.60 763.29,510.88 761.73,512.15 760.17,513.42 758.61,514.69 757.05,515.96 755.49,517.22 753.93,518.48 752.37,519.74 750.82,521.00 749.26,522.25 747.70,523.50 746.14,524.75 744.59,526.00 743.03,527.24 741.47,528.48 739.92,529.72 738.36,530.96 736.80,532.19 735.25,533.42 733.69,534.65 732.14,535.87 730.59,537.09 729.03,538.31 727.48,539.52 725.93,540.73 724.38,541.94 722.83,543.15 721.28,544.35 719.73,545.55 718.18,546.75 716.63,547.94 715.08,549.13 713.53,550.31 711.99,551.50 710.44,552.68 708.90,553.85 707.36,555.02 705.81,556.19 704.27,557.36 702.73,558.52 701.19,559.68 699.65,560.83 698.12,561.98 696.58,563.13 695.04,564.27 693.51,565.41 691.98,566.55 690.44,567.68 688.91,568.81 687.38,569.93 685.85,571.05 684.33,572.17 682.80,573.28">
    <lane id="-1_0" index="0" disallow="pedestrian tram rail_urban rail rail_electric rail_fast ship" speed="22.22" length="270.61" width="3.75" shape="896.76,407.61 895.26,408.97 893.78,410.32 892.29,411.66 890.80,413.01 889.31,414.35 887.82,415.70 886.33,417.04 884.84,418.39 883.34,419.74 881.84,421.09 880.34,422.43 878.84,423.78 877.34,425.13 875.83,426.48 874.33,427.83 872.82,429.18 871.31,430.53 869.80,431.88 868.28,433.23 866.77,434.58 865.25,435.93 863.73,437.28 862.21,438.63 860.69,439.97 859.17,441.32 857.65,442.67 856.12,444.02 854.60,445.37 853.07,446.72 851.54,448.07 850.01,449.41 848.48,450.76 846.94,452.11 845.41,453.46 843.87,454.80 842.34,456.15 840.80,457.49 839.26,458.84 837.72,460.18 836.18,461.52 834.64,462.86 833.09,464.21 831.55,465.55 830.00,466.89 828.46,468.23 826.91,469.56 825.36,470.90 823.81,472.24 822.26,473.57 820.71,474.91 819.16,476.24 817.61,477.57 816.06,478.90 814.50,480.23 812.95,481.56 811.39,482.89 809.84,484.22 808.28,485.54 806.72,486.86 805.16,488.19 803.61,489.51 802.05,490.83 800.49,492.14 798.93,493.46 797.37,494.77 795.81,496.09 794.24,497.40 792.68,498.71 791.12,500.02 789.56,501.32 788.00,502.63 786.43,503.93 784.87,505.23 783.30,506.53 781.74,507.83 780.18,509.12 778.61,510.42 777.05,511.71 775.48,513.00 773.92,514.28 772.35,515.57 770.79,516.85 769.22,518.13 767.65,519.41 766.09,520.69 764.52,521.96 762.96,523.23 761.39,524.50 759.83,525.77 758.26,527.04 756.70,528.30 755.13,529.56 753.57,530.81 752.00,532.07 750.44,533.32 748.88,534.57 747.31,535.82 745.75,537.06 744.19,538.30 742.62,539.54 741.06,540.77 739.50,542.01 737.94,543.24 736.37,544.46 734.81,545.69 733.25,546.91 731.69,548.13 730.13,549.34 728.58,550.55 727.02,551.76 725.46,552.97 723.90,554.17 722.35,555.37 720.79,556.56 719.24,557.76 717.68,558.95 716.13,560.13 714.57,561.31 713.02,562.49 711.47,563.67 709.92,564.84 708.37,566.01 706.82,567.17 705.27,568.34 703.73,569.49 702.18,570.65 700.64,571.80 699.09,572.94 697.55,574.09 696.01,575.22 694.47,576.36 692.93,577.49 691.39,578.62 689.85,579.74 688.44,580.77" type="driving"/>
    <lane id="-1_1" index="1" disallow="pedestrian tram rail_urban rail rail_electric rail_fast ship" speed="22.22" length="270.61" width="3.75" shape="894.24,404.84 892.74,406.19 891.26,407.54 889.77,408.88 888.29,410.22 886.80,411.57 885.31,412.91 883.82,414.26 882.33,415.60 880.83,416.95 879.34,418.30 877.84,419.64 876.34,420.99 874.83,422.34 873.33,423.69 871.82,425.03 870.32,426.38 868.81,427.73 867.30,429.08 865.79,430.43 864.27,431.78 862.76,433.12 861.24,434.47 859.72,435.82 858.20,437.17 856.68,438.52 855.16,439.87 853.64,441.21 852.11,442.56 850.59,443.91 849.06,445.25 847.53,446.60 846.00,447.95 844.47,449.29 842.94,450.64 841.40,451.98 839.87,453.32 838.33,454.67 836.79,456.01 835.26,457.35 833.72,458.69 832.18,460.04 830.63,461.38 829.09,462.71 827.55,464.05 826.00,465.39 824.46,466.73 822.91,468.06 821.37,469.40 819.82,470.73 818.27,472.06 816.72,473.40 815.17,474.73 813.62,476.05 812.07,477.38 810.51,478.71 808.96,480.04 807.41,481.36 805.85,482.68 804.30,484.01 802.74,485.33 801.18,486.64 799.63,487.96 798.07,489.28 796.51,490.59 794.95,491.91 793.39,493.22 791.83,494.53 790.27,495.83 788.71,497.14 787.15,498.45 785.59,499.75 784.03,501.05 782.47,502.35 780.91,503.65 779.35,504.94 777.79,506.23 776.22,507.53 774.66,508.81 773.10,510.10 771.54,511.39 769.97,512.67 768.41,513.95 766.85,515.23 765.28,516.51 763.72,517.78 762.16,519.05 760.60,520.32 759.03,521.59 757.47,522.85 755.91,524.12 754.35,525.38 752.78,526.63 751.22,527.89 749.66,529.14 748.10,530.39 746.54,531.64 744.98,532.88 743.42,534.12 741.85,535.36 740.29,536.60 738.74,537.83 737.18,539.06 735.62,540.29 734.06,541.51 732.50,542.74 730.94,543.95 729.39,545.17 727.83,546.38 726.28,547.59 724.72,548.80 723.17,550.00 721.61,551.20 720.06,552.40 718.51,553.59 716.95,554.78 715.40,555.97 713.85,557.15 712.30,558.33 710.76,559.51 709.21,560.68 707.66,561.85 706.12,563.01 704.57,564.18 703.03,565.33 701.48,566.49 699.94,567.64 698.40,568.79 696.86,569.93 695.32,571.07 693.78,572.21 692.24,573.34 690.71,574.47 689.17,575.59 687.64,576.71 686.23,577.74" type="driving"/>
    <lane id="-1_2" index="2" disallow="pedestrian tram rail_urban rail rail_electric rail_fast ship" speed="22.22" length="270.61" width="3.75" shape="891.72,402.06 890.22,403.42 888.74,404.76 887.26,406.10 885.77,407.44 884.29,408.79 882.80,410.13 881.31,411.47 879.82,412.82 878.32,414.16 876.83,415.51 875.33,416.85 873.83,418.20 872.33,419.55 870.83,420.89 869.32,422.24 867.82,423.59 866.31,424.93 864.80,426.28 863.29,427.63 861.78,428.98 860.27,430.32 858.75,431.67 857.23,433.02 855.72,434.36 854.20,435.71 852.68,437.06 851.15,438.40 849.63,439.75 848.11,441.09 846.58,442.44 845.05,443.78 843.52,445.13 841.99,446.47 840.46,447.82 838.93,449.16 837.40,450.50 835.86,451.84 834.33,453.19 832.79,454.53 831.25,455.87 829.71,457.21 828.17,458.54 826.63,459.88 825.09,461.22 823.55,462.55 822.01,463.89 820.46,465.22 818.92,466.56 817.37,467.89 815.82,469.22 814.28,470.55 812.73,471.88 811.18,473.21 809.63,474.53 808.08,475.86 806.53,477.18 804.97,478.51 803.42,479.83 801.87,481.15 800.31,482.47 798.76,483.78 797.20,485.10 795.65,486.41 794.09,487.73 792.54,489.04 790.98,490.35 789.42,491.65 787.87,492.96 786.31,494.26 784.75,495.57 783.19,496.87 781.63,498.17 780.07,499.46 778.51,500.76 776.95,502.05 775.39,503.34 773.83,504.63 772.27,505.92 770.71,507.21 769.15,508.49 767.59,509.77 766.03,511.05 764.47,512.33 762.91,513.60 761.35,514.87 759.79,516.14 758.23,517.41 756.67,518.68 755.11,519.94 753.55,521.20 751.99,522.46 750.43,523.71 748.87,524.96 747.31,526.21 745.76,527.46 744.20,528.71 742.64,529.95 741.08,531.19 739.52,532.42 737.97,533.66 736.41,534.89 734.85,536.12 733.30,537.34 731.74,538.56 730.19,539.78 728.63,541.00 727.08,542.21 725.53,543.42 723.98,544.63 722.42,545.83 720.87,547.03 719.32,548.23 717.77,549.43 716.22,550.62 714.67,551.80 713.13,552.99 711.58,554.17 710.03,555.34 708.49,556.52 706.95,557.69 705.40,558.85 703.86,560.02 702.32,561.18 700.78,562.33 699.24,563.48 697.70,564.63 696.16,565.78 694.63,566.92 693.09,568.06 691.56,569.19 690.02,570.32 688.49,571.44 686.96,572.56 685.43,573.68 684.02,574.71" type="driving"/>
  </edge>