<?xml version='1.0' encoding='UTF-8'?>
<!-- generated on 2022-09-25 13:35:26 by Eclipse SUMO netconvert Version 1.13.0
<configuration xmlns:xsi="http://www.w3.org/2001/XMLSchema-instance" xsi:noNamespaceSchemaLocation="http://sumo.dlr.de/xsd/netconvertConfiguration.xsd">

    <input>
        <opendrive-files value="map_new_new\21\59\59.xodr"/>
    </input>

    <output>
        <output-file value="C:\Users\LinGe\AppData\Local\Temp\tmpmd3g1tzm\59.net.xml"/>
    </output>

    <processing>
        <geometry.max-grade.fix value="false"/>
    </processing>

    <tls_building>
        <tls.left-green.time value="0"/>
    </tls_building>

    <junctions>
        <rectangular-lane-cut value="true"/>
    </junctions>

    <report>
        <aggregate-warnings value="5"/>
    </report>

</configuration>
-->
<net xmlns:xsi="http://www.w3.org/2001/XMLSchema-instance" version="1.9" junctionCornerDetail="5" rectangularLaneCut="true" limitTurnSpeed="5.50" xsi:noNamespaceSchemaLocation="http://sumo.dlr.de/xsd/net_file.xsd">
  <location netOffset="113.67,101.26" convBoundary="0.00,0.00,1314.11,1302.51" origBoundary="-113.67,-101.26,1200.44,1201.26" projParameter="!"/>
  <type id="bidirectional" priority="1" speed="1.39" disallow="pedestrian tram rail_urban rail rail_electric rail_fast ship" width="3.65"/>
  <type id="border" priority="0" speed="1.39" disallow="all" discard="1" width="0.10"/>
  <type id="driving" priority="1" speed="13.89" disallow="pedestrian tram rail_urban rail rail_electric rail_fast ship" width="3.65"/>
  <type id="entry" priority="1" speed="22.22" disallow="pedestrian tram rail_urban rail rail_electric rail_fast ship" width="3.65"/>
  <type id="exit" priority="1" speed="22.22" disallow="pedestrian tram rail_urban rail rail_electric rail_fast ship" width="3.65"/>
  <type id="median" priority="0" speed="1.39" disallow="all" discard="1" width="0.10"/>
  <type id="mwyEntry" priority="1" speed="22.22" allow="private emergency authority army vip passenger hov taxi bus coach delivery truck trailer motorcycle evehicle custom1 custom2" width="3.65"/>
  <type id="mwyExit" priority="1" speed="22.22" allow="private emergency authority army vip passenger hov taxi bus coach delivery truck trailer motorcycle evehicle custom1 custom2" width="3.65"/>
  <type id="none" priority="0" speed="1.39" disallow="all" discard="1" width="1.00"/>
  <type id="offRamp" priority="1" speed="22.22" allow="private emergency authority army vip passenger hov taxi bus coach delivery truck trailer motorcycle evehicle custom1 custom2" width="3.65"/>
  <type id="onRamp" priority="1" speed="22.22" allow="private emergency authority army vip passenger hov taxi bus coach delivery truck trailer motorcycle evehicle custom1 custom2" width="3.65"/>
  <type id="parking" priority="1" speed="1.39" disallow="pedestrian tram rail_urban rail rail_electric rail_fast ship" width="2.50"/>
  <type id="rail" priority="3" speed="33.33" allow="rail_urban rail rail_electric rail_fast" width="3.65"/>
  <type id="restricted" priority="0" speed="13.89" disallow="all" width="3.65"/>
  <type id="roadWorks" priority="0" speed="1.39" allow="authority" width="3.65"/>
  <type id="shoulder" priority="0" speed="1.39" disallow="all" discard="1" width="1.00"/>
  <type id="special1" priority="1" speed="22.22" allow="custom1" discard="1" width="3.65"/>
  <type id="special2" priority="1" speed="22.22" allow="custom2" discard="1" width="3.65"/>
  <type id="special3" priority="1" speed="22.22" allow="custom1 custom2" discard="1" width="3.65"/>
  <type id="stop" priority="1" speed="13.89" disallow="pedestrian tram rail_urban rail rail_electric rail_fast ship" width="3.65"/>
  <type id="tram" priority="2" speed="13.89" allow="tram" width="3.65"/>
  <edge id=":0_0" function="internal">
    <lane id=":0_0_0" index="0" disallow="pedestrian tram rail_urban rail rail_electric rail_fast ship" speed="15.97" length="63.25" width="3.75" shape="1065.93,295.28 1052.62,303.22 1035.87,313.90 1020.83,323.79 1012.65,329.35"/>
  </edge>
  <edge id=":0_1" function="internal">
    <lane id=":0_1_0" index="0" disallow="pedestrian tram rail_urban rail rail_electric rail_fast ship" speed="22.22" length="63.33" width="3.75" shape="1065.93,295.28 1010.44,325.75"/>
    <lane id=":0_1_1" index="1" disallow="pedestrian tram rail_urban rail rail_electric rail_fast ship" speed="22.22" length="63.33" width="3.75" shape="1064.14,291.99 1008.62,322.47"/>
    <lane id=":0_1_2" index="2" disallow="pedestrian tram rail_urban rail rail_electric rail_fast ship" speed="22.22" length="63.33" width="3.75" shape="1062.34,288.70 1006.81,319.19"/>
  </edge>
  <edge id=":1_0" function="internal">
    <lane id=":1_0_0" index="0" disallow="pedestrian tram rail_urban rail rail_electric rail_fast ship" speed="16.67" length="39.31" width="3.75" shape="533.73,651.08 525.09,659.06 517.08,667.50 510.72,674.92 507.01,679.83"/>
  </edge>
  <edge id=":1_1" function="internal">
    <lane id=":1_1_0" index="0" disallow="pedestrian tram rail_urban rail rail_electric rail_fast ship" speed="22.22" length="39.62" width="3.75" shape="533.73,651.08 503.47,676.64"/>
    <lane id=":1_1_1" index="1" disallow="pedestrian tram rail_urban rail rail_electric rail_fast ship" speed="22.22" length="39.62" width="3.75" shape="531.31,648.21 501.05,673.78"/>
    <lane id=":1_1_2" index="2" disallow="pedestrian tram rail_urban rail rail_electric rail_fast ship" speed="22.22" length="39.62" width="3.75" shape="528.90,645.34 498.62,670.92"/>
  </edge>
  <edge id=":10_0" function="internal">
    <lane id=":10_0_0" index="0" disallow="pedestrian tram rail_urban rail rail_electric rail_fast ship" speed="20.83" length="39.93" width="3.75" shape="1046.45,274.61,0.09 1052.42,272.76,0.07 1061.84,269.43,0.05 1072.83,265.01,0.03 1083.51,259.88"/>
  </edge>
  <edge id=":10_1" function="internal">
    <lane id=":10_1_0" index="0" disallow="pedestrian tram rail_urban rail rail_electric rail_fast ship" speed="22.22" length="39.28" width="3.75" shape="1048.99,278.65 1083.51,259.88"/>
    <lane id=":10_1_1" index="1" disallow="pedestrian tram rail_urban rail rail_electric rail_fast ship" speed="22.22" length="39.28" width="3.75" shape="1050.78,281.94 1085.29,263.17"/>
    <lane id=":10_1_2" index="2" disallow="pedestrian tram rail_urban rail rail_electric rail_fast ship" speed="22.22" length="39.28" width="3.75" shape="1052.58,285.23 1087.08,266.47"/>
  </edge>
  <edge id=":11_0" function="internal">
    <lane id=":11_0_0" index="0" disallow="pedestrian tram rail_urban rail rail_electric rail_fast ship" speed="15.97" length="111.00" width="3.75" shape="1013.69,1116.63,20.00 1086.16,1200.71,20.00"/>
  </edge>
  <edge id=":11_1" function="internal">
    <lane id=":11_1_0" index="0" disallow="pedestrian tram rail_urban rail rail_electric rail_fast ship" speed="22.22" length="110.80" width="3.75" shape="1010.79,1119.50,20.00 1086.16,1200.71,20.00"/>
    <lane id=":11_1_1" index="1" disallow="pedestrian tram rail_urban rail rail_electric rail_fast ship" speed="22.22" length="110.80" width="3.75" shape="1008.04,1122.05,20.00 1083.42,1203.26,20.00"/>
    <lane id=":11_1_2" index="2" disallow="pedestrian tram rail_urban rail rail_electric rail_fast ship" speed="22.22" length="110.80" width="3.75" shape="1005.29,1124.60,20.00 1080.67,1205.81,20.00"/>
  </edge>
  <edge id=":12_0" function="internal">
    <lane id=":12_0_0" index="0" disallow="pedestrian tram rail_urban rail rail_electric rail_fast ship" speed="16.67" length="25.38" width="3.75" shape="633.77,752.07,20.00 633.25,747.75,20.00 631.51,742.43,20.00 628.23,736.30,20.00 623.07,729.57,20.00"/>
  </edge>
  <edge id=":12_1" function="internal">
    <lane id=":12_1_0" index="0" disallow="pedestrian tram rail_urban rail rail_electric rail_fast ship" speed="22.22" length="23.69" width="3.75" shape="638.86,747.23,20.00 623.07,729.57,20.00"/>
    <lane id=":12_1_1" index="1" disallow="pedestrian tram rail_urban rail rail_electric rail_fast ship" speed="22.22" length="23.69" width="3.75" shape="641.65,744.73,20.00 625.87,727.07,20.00"/>
    <lane id=":12_1_2" index="2" disallow="pedestrian tram rail_urban rail rail_electric rail_fast ship" speed="22.22" length="23.69" width="3.75" shape="644.45,742.22,20.00 628.66,724.57,20.00"/>
  </edge>
  <edge id=":13_0" function="internal">
    <lane id=":13_0_0" index="0" disallow="pedestrian tram rail_urban rail rail_electric rail_fast ship" speed="19.44" length="92.96" width="3.75" shape="446.68,689.73,0.00 458.27,680.98,0.00 480.65,663.80,0.00 504.40,645.35,0.00 520.15,632.79"/>
  </edge>
  <edge id=":13_1" function="internal">
    <lane id=":13_1_0" index="0" disallow="pedestrian tram rail_urban rail rail_electric rail_fast ship" speed="22.22" length="92.69" width="3.75" shape="449.48,692.81 520.15,632.79"/>
    <lane id=":13_1_1" index="1" disallow="pedestrian tram rail_urban rail rail_electric rail_fast ship" speed="22.22" length="92.69" width="3.75" shape="451.92,695.65 522.56,635.66"/>
    <lane id=":13_1_2" index="2" disallow="pedestrian tram rail_urban rail rail_electric rail_fast ship" speed="22.22" length="92.69" width="3.75" shape="454.36,698.50 524.98,638.53"/>
  </edge>
  <edge id=":13.12_0" function="internal">
    <lane id=":13.12_0_0" index="0" disallow="pedestrian tram rail_urban rail rail_electric rail_fast ship" speed="22.22" length="0.30" width="3.75" shape="515.69,570.56,20.00 515.87,570.79,20.00"/>
    <lane id=":13.12_0_1" index="1" disallow="pedestrian tram rail_urban rail rail_electric rail_fast ship" speed="22.22" length="0.30" width="3.75" shape="512.77,572.91,20.00 512.96,573.15,20.00"/>
    <lane id=":13.12_0_2" index="2" disallow="pedestrian tram rail_urban rail rail_electric rail_fast ship" speed="22.22" length="0.30" width="3.75" shape="509.85,575.27,20.00 510.04,575.50,20.00"/>
  </edge>
  <edge id=":14_0" function="internal">
    <lane id=":14_0_0" index="0" disallow="pedestrian tram rail_urban rail rail_electric rail_fast ship" speed="20.83" length="7.99" width="3.75" shape="694.93,521.17,0.00 688.54,525.97"/>
  </edge>
  <edge id=":14_1" function="internal">
    <lane id=":14_1_0" index="0" disallow="pedestrian tram rail_urban rail rail_electric rail_fast ship" speed="22.22" length="8.00" width="3.75" shape="694.91,521.17 688.54,525.97"/>
    <lane id=":14_1_1" index="1" disallow="pedestrian tram rail_urban rail rail_electric rail_fast ship" speed="22.22" length="8.00" width="3.75" shape="692.66,518.17 686.27,522.98"/>
    <lane id=":14_1_2" index="2" disallow="pedestrian tram rail_urban rail rail_electric rail_fast ship" speed="22.22" length="8.00" width="3.75" shape="690.41,515.17 684.01,519.99"/>
  </edge>
  <edge id=":15_0" function="internal">
    <lane id=":15_0_0" index="0" disallow="pedestrian tram rail_urban rail rail_electric rail_fast ship" speed="9.72" length="27.47" width="3.75" shape="836.58,791.78,12.00 845.15,817.88,12.03"/>
  </edge>
  <edge id=":15_1" function="internal">
    <lane id=":15_1_0" index="0" disallow="pedestrian tram rail_urban rail rail_electric rail_fast ship" speed="14.58" length="27.03" width="3.75" shape="832.88,793.84,11.97 835.88,798.59,11.98 839.57,805.57,12.00 842.98,812.69,12.02 845.15,817.88,12.03"/>
  </edge>
  <edge id=":19.18_0" function="internal">
    <lane id=":19.18_0_0" index="0" disallow="pedestrian tram rail_urban rail rail_electric rail_fast ship" speed="22.22" length="0.30" width="3.75" shape="498.18,585.09,20.00 497.99,584.85,20.00"/>
    <lane id=":19.18_0_1" index="1" disallow="pedestrian tram rail_urban rail rail_electric rail_fast ship" speed="22.22" length="0.30" width="3.75" shape="501.09,582.73,20.00 500.91,582.50,20.00"/>
    <lane id=":19.18_0_2" index="2" disallow="pedestrian tram rail_urban rail rail_electric rail_fast ship" speed="22.22" length="0.30" width="3.75" shape="504.01,580.37,20.00 503.83,580.14,20.00"/>
  </edge>
  <edge id=":2_0" function="internal">
    <lane id=":2_0_0" index="0" disallow="pedestrian tram rail_urban rail rail_electric rail_fast ship" speed="15.97" length="89.83" width="3.75" shape="208.12,903.42 222.49,890.00 243.37,869.87 262.78,850.91 272.72,841.00"/>
  </edge>
  <edge id=":2_1" function="internal">
    <lane id=":2_1_0" index="0" disallow="pedestrian tram rail_urban rail rail_electric rail_fast ship" speed="22.22" length="89.96" width="3.75" shape="208.12,903.42 275.64,843.96"/>
    <lane id=":2_1_1" index="1" disallow="pedestrian tram rail_urban rail rail_electric rail_fast ship" speed="22.22" length="89.96" width="3.75" shape="210.60,906.23 278.11,846.78"/>
    <lane id=":2_1_2" index="2" disallow="pedestrian tram rail_urban rail rail_electric rail_fast ship" speed="22.22" length="89.96" width="3.75" shape="213.08,909.05 280.59,849.59"/>
  </edge>
  <edge id=":2.1_0" function="internal">
    <lane id=":2.1_0_0" index="0" disallow="pedestrian tram rail_urban rail rail_electric rail_fast ship" speed="22.22" length="0.30" width="3.75" shape="710.42,509.72 710.18,509.90"/>
    <lane id=":2.1_0_1" index="1" disallow="pedestrian tram rail_urban rail rail_electric rail_fast ship" speed="22.22" length="0.30" width="3.75" shape="708.22,506.69 707.97,506.86"/>
    <lane id=":2.1_0_2" index="2" disallow="pedestrian tram rail_urban rail rail_electric rail_fast ship" speed="22.22" length="0.30" width="3.75" shape="706.01,503.65 705.76,503.83"/>
  </edge>
  <edge id=":23.22_0" function="internal">
    <lane id=":23.22_0_0" index="0" disallow="pedestrian tram rail_urban rail rail_electric rail_fast ship" speed="19.44" length="0.30" width="3.75" shape="621.74,958.72,8.62 621.46,958.62,8.61"/>
  </edge>
  <edge id=":26.25_0" function="internal">
    <lane id=":26.25_0_0" index="0" disallow="pedestrian tram rail_urban rail rail_electric rail_fast ship" speed="9.72" length="0.29" width="3.75" shape="359.46,657.62,6.82 359.45,657.33,6.83"/>
  </edge>
  <edge id=":28.27_0" function="internal">
    <lane id=":28.27_0_0" index="0" disallow="pedestrian tram rail_urban rail rail_electric rail_fast ship" speed="19.44" length="0.30" width="3.75" shape="595.45,272.12,10.71 595.75,272.17,10.70"/>
  </edge>
  <edge id=":3_0" function="internal">
    <lane id=":3_0_0" index="0" disallow="pedestrian tram rail_urban rail rail_electric rail_fast ship" speed="20.83" length="29.35" width="3.75" shape="203.01,117.02,20.00 208.90,125.12,19.98 214.40,131.21,19.97 219.15,135.59,19.96 222.77,138.53,19.95"/>
  </edge>
  <edge id=":3_1" function="internal">
    <lane id=":3_1_0" index="0" disallow="pedestrian tram rail_urban rail rail_electric rail_fast ship" speed="22.22" length="29.57" width="3.75" shape="203.01,117.02,20.00 219.11,141.82,20.00"/>
    <lane id=":3_1_1" index="1" disallow="pedestrian tram rail_urban rail rail_electric rail_fast ship" speed="22.22" length="29.57" width="3.75" shape="199.86,119.07,20.00 215.97,143.87,20.00"/>
    <lane id=":3_1_2" index="2" disallow="pedestrian tram rail_urban rail rail_electric rail_fast ship" speed="22.22" length="29.57" width="3.75" shape="196.72,121.11,20.00 212.82,145.91,20.00"/>
  </edge>
  <edge id=":30.29_0" function="internal">
    <lane id=":30.29_0_0" index="0" disallow="pedestrian tram rail_urban rail rail_electric rail_fast ship" speed="9.72" length="0.29" width="3.75" shape="801.94,581.48,7.27 801.94,581.77,7.28"/>
  </edge>
  <edge id=":33.32_0" function="internal">
    <lane id=":33.32_0_0" index="0" disallow="pedestrian tram rail_urban rail rail_electric rail_fast ship" speed="11.11" length="0.27" width="3.75" shape="521.32,781.04,9.52 521.54,781.20,9.55"/>
  </edge>
  <edge id=":35.34_0" function="internal">
    <lane id=":35.34_0_0" index="0" disallow="pedestrian tram rail_urban rail rail_electric rail_fast ship" speed="16.67" length="0.30" width="3.75" shape="15.50,656.79,8.98 15.61,657.07,8.97"/>
  </edge>
  <edge id=":37.36_0" function="internal">
    <lane id=":37.36_0_0" index="0" disallow="pedestrian tram rail_urban rail rail_electric rail_fast ship" speed="19.44" length="0.30" width="3.75" shape="1311.64,660.69,9.76 1311.62,660.39,9.76"/>
  </edge>
  <edge id=":39.38_0" function="internal">
    <lane id=":39.38_0_0" index="0" disallow="pedestrian tram rail_urban rail rail_electric rail_fast ship" speed="19.44" length="0.30" width="3.75" shape="504.26,715.30,6.84 504.56,715.35,6.85"/>
  </edge>
  <edge id=":4_0" function="internal">
    <lane id=":4_0_0" index="0" disallow="pedestrian tram rail_urban rail rail_electric rail_fast ship" speed="20.83" length="82.88" width="3.75" shape="708.58,790.63,20.00 721.48,803.99,19.97 740.32,822.78,19.93 757.98,840.11,19.89 767.33,849.07,19.87"/>
  </edge>
  <edge id=":4_1" function="internal">
    <lane id=":4_1_0" index="0" disallow="pedestrian tram rail_urban rail rail_electric rail_fast ship" speed="22.22" length="82.98" width="3.75" shape="708.58,790.63,20.00 764.38,852.02,20.00"/>
    <lane id=":4_1_1" index="1" disallow="pedestrian tram rail_urban rail rail_electric rail_fast ship" speed="22.22" length="82.98" width="3.75" shape="705.80,793.15,20.00 761.61,854.55,20.00"/>
    <lane id=":4_1_2" index="2" disallow="pedestrian tram rail_urban rail rail_electric rail_fast ship" speed="22.22" length="82.98" width="3.75" shape="703.02,795.66,20.00 758.84,857.08,20.00"/>
  </edge>
  <edge id=":5_0" function="internal">
    <lane id=":5_0_0" index="0" disallow="pedestrian tram rail_urban rail rail_electric rail_fast ship" speed="20.83" length="49.30" width="3.75" shape="1070.90,1217.69,20.00 1061.43,1208.32,19.97 1050.26,1198.21,19.93 1040.26,1189.58,19.89 1034.31,1184.68,19.87"/>
  </edge>
  <edge id=":5_1" function="internal">
    <lane id=":5_1_0" index="0" disallow="pedestrian tram rail_urban rail rail_electric rail_fast ship" speed="22.22" length="49.44" width="3.75" shape="1070.90,1217.69,20.00 1037.26,1181.46,20.00"/>
    <lane id=":5_1_1" index="1" disallow="pedestrian tram rail_urban rail rail_electric rail_fast ship" speed="22.22" length="49.44" width="3.75" shape="1073.65,1215.14,20.00 1040.01,1178.91,20.00"/>
    <lane id=":5_1_2" index="2" disallow="pedestrian tram rail_urban rail rail_electric rail_fast ship" speed="22.22" length="49.44" width="3.75" shape="1076.40,1212.59,20.00 1042.76,1176.36,20.00"/>
  </edge>
  <edge id=":6_0" function="internal">
    <lane id=":6_0_0" index="0" disallow="pedestrian tram rail_urban rail rail_electric rail_fast ship" speed="19.44" length="71.42" width="3.75" shape="488.69,573.20,20.00 477.99,560.28,19.97 463.26,543.04,19.93 449.63,527.33,19.89 442.21,518.98,19.87"/>
  </edge>
  <edge id=":6_1" function="internal">
    <lane id=":6_1_0" index="0" disallow="pedestrian tram rail_urban rail rail_electric rail_fast ship" speed="22.22" length="71.70" width="3.75" shape="488.69,573.20,20.00 445.25,515.99,20.00"/>
    <lane id=":6_1_1" index="1" disallow="pedestrian tram rail_urban rail rail_electric rail_fast ship" speed="22.22" length="71.70" width="3.75" shape="491.63,570.88,20.00 448.27,513.77,20.00"/>
    <lane id=":6_1_2" index="2" disallow="pedestrian tram rail_urban rail rail_electric rail_fast ship" speed="22.22" length="71.70" width="3.75" shape="494.57,568.55,20.00 451.29,511.55,20.00"/>
  </edge>
  <edge id=":7_0" function="internal">
    <lane id=":7_0_0" index="0" disallow="pedestrian tram rail_urban rail rail_electric rail_fast ship" speed="20.83" length="25.06" width="3.75" shape="261.34,894.79,0.04 257.17,895.94,0.03 252.01,897.89,0.02 246.01,901.14,0.01 239.33,906.21"/>
  </edge>
  <edge id=":7_1" function="internal">
    <lane id=":7_1_0" index="0" disallow="pedestrian tram rail_urban rail rail_electric rail_fast ship" speed="22.22" length="23.76" width="3.75" shape="257.16,890.50 239.33,906.21"/>
    <lane id=":7_1_1" index="1" disallow="pedestrian tram rail_urban rail rail_electric rail_fast ship" speed="22.22" length="23.76" width="3.75" shape="254.68,887.69 236.85,903.40"/>
    <lane id=":7_1_2" index="2" disallow="pedestrian tram rail_urban rail rail_electric rail_fast ship" speed="22.22" length="23.76" width="3.75" shape="252.20,884.88 234.37,900.59"/>
  </edge>
  <edge id=":8_0" function="internal">
    <lane id=":8_0_0" index="0" disallow="pedestrian tram rail_urban rail rail_electric rail_fast ship" speed="15.97" length="43.98" width="3.75" shape="194.80,154.29,19.90 191.96,148.02,19.92 187.07,137.74,19.94 181.02,125.97,19.97 174.73,115.20,20.00"/>
  </edge>
  <edge id=":8_1" function="internal">
    <lane id=":8_1_0" index="0" disallow="pedestrian tram rail_urban rail rail_electric rail_fast ship" speed="22.22" length="43.49" width="3.75" shape="198.41,151.68,20.00 174.73,115.20,20.00"/>
    <lane id=":8_1_1" index="1" disallow="pedestrian tram rail_urban rail rail_electric rail_fast ship" speed="22.22" length="43.49" width="3.75" shape="201.55,149.63,20.00 177.87,113.15,20.00"/>
    <lane id=":8_1_2" index="2" disallow="pedestrian tram rail_urban rail rail_electric rail_fast ship" speed="22.22" length="43.49" width="3.75" shape="204.70,147.59,20.00 181.02,111.11,20.00"/>
  </edge>
  <edge id=":9_0" function="internal">
    <lane id=":9_0_0" index="0" disallow="pedestrian tram rail_urban rail rail_electric rail_fast ship" speed="9.72" length="18.73" width="3.75" shape="347.98,727.12,4.45 349.42,723.04,4.46 350.99,718.26,4.47 352.47,713.45,4.48 353.65,709.28,4.49"/>
  </edge>
  <edge id=":9_1" function="internal">
    <lane id=":9_1_0" index="0" disallow="pedestrian tram rail_urban rail rail_electric rail_fast ship" speed="14.58" length="20.00" width="3.75" shape="347.98,727.12,4.45 349.86,723.00,4.47 352.58,718.24,4.49 355.66,713.72,4.51 358.63,710.32,4.53"/>
  </edge>
  <edge id=":9.8_0" function="internal">
    <lane id=":9.8_0_0" index="0" disallow="pedestrian tram rail_urban rail rail_electric rail_fast ship" speed="22.22" length="0.30" width="3.75" shape="696.80,491.50 697.04,491.32"/>
    <lane id=":9.8_0_1" index="1" disallow="pedestrian tram rail_urban rail rail_electric rail_fast ship" speed="22.22" length="0.30" width="3.75" shape="699.00,494.53 699.25,494.35"/>
    <lane id=":9.8_0_2" index="2" disallow="pedestrian tram rail_urban rail rail_electric rail_fast ship" speed="22.22" length="0.30" width="3.75" shape="701.21,497.56 701.45,497.39"/>
  </edge>
  <edge id="-0" from="0.begin" to="0" priority="1" type="driving" shape="1214.84,202.87 1213.76,203.51 1212.65,204.16 1211.52,204.81 1210.38,205.48 1209.22,206.15 1208.04,206.83 1206.84,207.51 1205.63,208.21 1204.40,208.91 1203.15,209.62 1201.88,210.34 1200.60,211.07 1199.30,211.81 1197.99,212.55 1196.65,213.30 1195.30,214.06 1193.94,214.83 1192.55,215.60 1191.16,216.38 1189.74,217.17 1188.31,217.97 1186.86,218.77 1185.40,219.59 1183.92,220.41 1182.43,221.23 1180.92,222.07 1179.40,222.91 1177.86,223.76 1176.30,224.62 1174.73,225.48 1173.15,226.35 1171.55,227.23 1169.94,228.11 1168.31,229.01 1166.67,229.91 1165.02,230.81 1163.35,231.73 1161.66,232.65 1159.96,233.57 1158.25,234.51 1156.53,235.45 1154.79,236.39 1153.04,237.35 1151.27,238.31 1149.50,239.28 1147.71,240.25 1145.90,241.23 1144.09,242.22 1142.26,243.21 1140.42,244.21 1138.56,245.21 1136.70,246.23 1134.82,247.25 1132.93,248.27 1131.03,249.30 1129.12,250.34 1127.19,251.38 1125.25,252.43 1123.31,253.49 1121.35,254.55 1119.38,255.61 1117.39,256.69 1115.40,257.77 1113.40,258.85 1111.39,259.94 1109.36,261.04 1107.33,262.14 1105.28,263.25 1103.23,264.36 1101.16,265.48 1099.09,266.61 1097.00,267.74 1094.91,268.87 1092.80,270.01 1090.69,271.16 1088.56,272.31 1086.43,273.47 1084.29,274.63 1082.14,275.80 1079.98,276.97 1077.81,278.15 1075.64,279.33 1073.45,280.52 1071.26,281.71 1069.06,282.91 1066.85,284.11 1064.63,285.32 1062.40,286.53 1060.17,287.75 1057.93,288.97">
    <lane id="-0_0" index="0" disallow="pedestrian tram rail_urban rail rail_electric rail_fast ship" speed="22.22" length="175.15" width="3.75" shape="1219.58,210.96 1218.49,211.60 1217.37,212.26 1216.23,212.92 1215.08,213.59 1213.90,214.27 1212.72,214.95 1211.51,215.64 1210.29,216.35 1209.05,217.05 1207.79,217.77 1206.51,218.50 1205.22,219.23 1203.92,219.97 1202.59,220.72 1201.25,221.47 1199.89,222.23 1198.52,223.00 1197.13,223.78 1195.73,224.57 1194.31,225.36 1192.87,226.16 1191.42,226.97 1189.95,227.78 1188.47,228.61 1186.97,229.44 1185.46,230.27 1183.93,231.12 1182.39,231.97 1180.83,232.83 1179.25,233.69 1177.67,234.57 1176.07,235.45 1174.45,236.33 1172.82,237.23 1171.17,238.13 1169.52,239.04 1167.84,239.95 1166.16,240.87 1164.46,241.80 1162.74,242.74 1161.02,243.68 1159.28,244.63 1157.52,245.58 1155.76,246.54 1153.98,247.51 1152.18,248.49 1150.38,249.47 1148.56,250.45 1146.73,251.45 1144.89,252.45 1143.04,253.45 1141.17,254.47 1139.29,255.49 1137.40,256.51 1135.50,257.54 1133.58,258.58 1131.66,259.62 1129.72,260.67 1127.77,261.73 1125.81,262.79 1123.84,263.86 1121.86,264.93 1119.87,266.01 1117.86,267.10 1115.85,268.19 1113.83,269.28 1111.79,270.38 1109.75,271.49 1107.69,272.61 1105.63,273.72 1103.55,274.85 1101.47,275.98 1099.37,277.11 1097.27,278.25 1095.16,279.40 1093.03,280.55 1090.90,281.71 1088.76,282.87 1086.61,284.04 1084.46,285.21 1082.29,286.38 1080.11,287.57 1077.93,288.75 1075.74,289.95 1073.54,291.14 1071.33,292.34 1069.11,293.55 1066.89,294.76 1065.93,295.28" type="driving"/>
    <lane id="-0_1" index="1" disallow="pedestrian tram rail_urban rail rail_electric rail_fast ship" speed="22.22" length="175.15" width="3.75" shape="1217.69,207.73 1216.59,208.37 1215.48,209.02 1214.35,209.68 1213.20,210.34 1212.03,211.02 1210.85,211.70 1209.64,212.39 1208.42,213.09 1207.19,213.80 1205.93,214.51 1204.66,215.23 1203.37,215.96 1202.07,216.70 1200.75,217.45 1199.41,218.20 1198.06,218.96 1196.69,219.73 1195.30,220.51 1193.90,221.29 1192.48,222.09 1191.05,222.88 1189.60,223.69 1188.13,224.51 1186.65,225.33 1185.15,226.16 1183.64,226.99 1182.12,227.84 1180.57,228.69 1179.02,229.54 1177.45,230.41 1175.86,231.28 1174.26,232.16 1172.65,233.05 1171.02,233.94 1169.37,234.84 1167.72,235.75 1166.04,236.66 1164.36,237.58 1162.66,238.51 1160.95,239.44 1159.22,240.39 1157.48,241.33 1155.73,242.29 1153.96,243.25 1152.19,244.22 1150.39,245.19 1148.59,246.17 1146.77,247.16 1144.94,248.15 1143.10,249.15 1141.25,250.16 1139.38,251.17 1137.50,252.19 1135.61,253.22 1133.71,254.25 1131.80,255.28 1129.87,256.33 1127.93,257.38 1125.98,258.43 1124.03,259.49 1122.05,260.56 1120.07,261.63 1118.08,262.71 1116.08,263.80 1114.06,264.89 1112.04,265.98 1110.01,267.09 1107.96,268.19 1105.91,269.31 1103.84,270.43 1101.77,271.55 1099.68,272.68 1097.59,273.82 1095.48,274.96 1093.37,276.10 1091.25,277.25 1089.12,278.41 1086.97,279.57 1084.82,280.74 1082.67,281.91 1080.50,283.09 1078.32,284.27 1076.14,285.46 1073.95,286.65 1071.74,287.85 1069.54,289.05 1067.32,290.26 1065.09,291.47 1064.14,291.99" type="driving"/>
    <lane id="-0_2" index="2" disallow="pedestrian tram rail_urban rail rail_electric rail_fast ship" speed="22.22" length="175.15" width="3.75" shape="1215.79,204.49 1214.70,205.13 1213.59,205.78 1212.46,206.43 1211.32,207.10 1210.16,207.77 1208.98,208.45 1207.78,209.14 1206.56,209.84 1205.33,210.54 1204.08,211.25 1202.81,211.97 1201.53,212.70 1200.22,213.44 1198.91,214.18 1197.57,214.93 1196.22,215.69 1194.85,216.46 1193.47,217.24 1192.07,218.02 1190.65,218.81 1189.22,219.61 1187.77,220.41 1186.31,221.23 1184.83,222.05 1183.34,222.87 1181.83,223.71 1180.30,224.55 1178.76,225.40 1177.21,226.26 1175.64,227.12 1174.05,227.99 1172.46,228.87 1170.84,229.76 1169.21,230.65 1167.57,231.55 1165.92,232.46 1164.25,233.37 1162.56,234.29 1160.86,235.22 1159.15,236.15 1157.43,237.09 1155.69,238.04 1153.94,238.99 1152.17,239.96 1150.39,240.92 1148.60,241.90 1146.80,242.88 1144.98,243.86 1143.15,244.86 1141.31,245.86 1139.46,246.86 1137.59,247.88 1135.71,248.89 1133.82,249.92 1131.92,250.95 1130.01,251.99 1128.08,253.03 1126.15,254.08 1124.20,255.13 1122.24,256.20 1120.27,257.26 1118.29,258.34 1116.30,259.42 1114.29,260.50 1112.28,261.59 1110.25,262.69 1108.22,263.79 1106.17,264.90 1104.12,266.01 1102.05,267.13 1099.98,268.25 1097.89,269.38 1095.80,270.52 1093.70,271.66 1091.58,272.81 1089.46,273.96 1087.33,275.11 1085.19,276.28 1083.04,277.44 1080.88,278.62 1078.71,279.79 1076.53,280.98 1074.35,282.16 1072.15,283.36 1069.95,284.55 1067.74,285.76 1065.53,286.96 1063.30,288.18 1062.34,288.70" type="driving"/>
  </edge>