<?xml version='1.0' encoding='UTF-8'?>
<!-- generated on 2022-11-13 00:34:11 by Eclipse SUMO netconvert Version 1.13.0
<configuration xmlns:xsi="http://www.w3.org/2001/XMLSchema-instance" xsi:noNamespaceSchemaLocation="http://sumo.dlr.de/xsd/netconvertConfiguration.xsd">

    <input>
        <opendrive-files value="map_v4\21\67511577\67511577.xodr"/>
    </input>

    <output>
        <output-file value="C:\Users\LinGe\AppData\Local\Temp\tmp07ec67ud\67511577.net.xml"/>
    </output>

    <processing>
        <geometry.max-grade.fix value="false"/>
    </processing>

    <tls_building>
        <tls.left-green.time value="0"/>
    </tls_building>

    <junctions>
        <rectangular-lane-cut value="true"/>
    </junctions>

    <report>
        <aggregate-warnings value="5"/>
    </report>

</configuration>
-->
<net xmlns:xsi="http://www.w3.org/2001/XMLSchema-instance" version="1.9" junctionCornerDetail="5" rectangularLaneCut="true" limitTurnSpeed="5.50" xsi:noNamespaceSchemaLocation="http://sumo.dlr.de/xsd/net_file.xsd">
  <location netOffset="1.56,101.26" convBoundary="0.00,0.00,1208.97,1302.51" origBoundary="-1.56,-101.26,1207.41,1201.26" projParameter="!"/>
  <type id="bidirectional" priority="1" speed="1.39" disallow="pedestrian tram rail_urban rail rail_electric rail_fast ship" width="3.65"/>
  <type id="border" priority="0" speed="1.39" disallow="all" discard="1" width="0.10"/>
  <type id="driving" priority="1" speed="13.89" disallow="pedestrian tram rail_urban rail rail_electric rail_fast ship" width="3.65"/>
  <type id="entry" priority="1" speed="22.22" disallow="pedestrian tram rail_urban rail rail_electric rail_fast ship" width="3.65"/>
  <type id="exit" priority="1" speed="22.22" disallow="pedestrian tram rail_urban rail rail_electric rail_fast ship" width="3.65"/>
  <type id="median" priority="0" speed="1.39" disallow="all" discard="1" width="0.10"/>
  <type id="mwyEntry" priority="1" speed="22.22" allow="private emergency authority army vip passenger hov taxi bus coach delivery truck trailer motorcycle evehicle custom1 custom2" width="3.65"/>
  <type id="mwyExit" priority="1" speed="22.22" allow="private emergency authority army vip passenger hov taxi bus coach delivery truck trailer motorcycle evehicle custom1 custom2" width="3.65"/>
  <type id="none" priority="0" speed="1.39" disallow="all" discard="1" width="1.00"/>
  <type id="offRamp" priority="1" speed="22.22" allow="private emergency authority army vip passenger hov taxi bus coach delivery truck trailer motorcycle evehicle custom1 custom2" width="3.65"/>
  <type id="onRamp" priority="1" speed="22.22" allow="private emergency authority army vip passenger hov taxi bus coach delivery truck trailer motorcycle evehicle custom1 custom2" width="3.65"/>
  <type id="parking" priority="1" speed="1.39" disallow="pedestrian tram rail_urban rail rail_electric rail_fast ship" width="2.50"/>
  <type id="rail" priority="3" speed="33.33" allow="rail_urban rail rail_electric rail_fast" width="3.65"/>
  <type id="restricted" priority="0" speed="13.89" disallow="all" width="3.65"/>
  <type id="roadWorks" priority="0" speed="1.39" allow="authority" width="3.65"/>
  <type id="shoulder" priority="0" speed="1.39" disallow="all" discard="1" width="1.00"/>
  <type id="special1" priority="1" speed="22.22" allow="custom1" discard="1" width="3.65"/>
  <type id="special2" priority="1" speed="22.22" allow="custom2" discard="1" width="3.65"/>
  <type id="special3" priority="1" speed="22.22" allow="custom1 custom2" discard="1" width="3.65"/>
  <type id="stop" priority="1" speed="13.89" disallow="pedestrian tram rail_urban rail rail_electric rail_fast ship" width="3.65"/>
  <type id="tram" priority="2" speed="13.89" allow="tram" width="3.65"/>
  <edge id=":0_0" function="internal">
    <lane id=":0_0_0" index="0" disallow="pedestrian tram rail_urban rail rail_electric rail_fast ship" speed="16.67" length="35.54" width="3.75" shape="1014.53,267.44 1005.27,273.67,0.02 997.17,280.08,0.04 990.83,285.71,0.06 986.85,289.61,0.07"/>
  </edge>
  <edge id=":0_1" function="internal">
    <lane id=":0_1_0" index="0" disallow="pedestrian tram rail_urban rail rail_electric rail_fast ship" speed="22.22" length="35.77" width="3.75" shape="1014.53,267.44 983.90,285.91"/>
    <lane id=":0_1_1" index="1" disallow="pedestrian tram rail_urban rail rail_electric rail_fast ship" speed="22.22" length="35.77" width="3.75" shape="1012.59,264.23 981.96,282.70"/>
    <lane id=":0_1_2" index="2" disallow="pedestrian tram rail_urban rail rail_electric rail_fast ship" speed="22.22" length="35.77" width="3.75" shape="1010.66,261.02 980.03,279.48"/>
  </edge>
  <edge id=":1_0" function="internal">
    <lane id=":1_0_0" index="0" disallow="pedestrian tram rail_urban rail rail_electric rail_fast ship" speed="16.67" length="25.59" width="3.75" shape="454.68,616.42 447.85,621.68 442.85,626.62 439.46,631.09 437.44,634.93"/>
  </edge>
  <edge id=":1_1" function="internal">
    <lane id=":1_1_0" index="0" disallow="pedestrian tram rail_urban rail rail_electric rail_fast ship" speed="22.22" length="26.18" width="3.75" shape="454.68,616.42 433.23,631.35"/>
    <lane id=":1_1_1" index="1" disallow="pedestrian tram rail_urban rail rail_electric rail_fast ship" speed="22.22" length="26.18" width="3.75" shape="452.55,613.33 431.07,628.29"/>
    <lane id=":1_1_2" index="2" disallow="pedestrian tram rail_urban rail rail_electric rail_fast ship" speed="22.22" length="26.18" width="3.75" shape="450.43,610.24 428.90,625.22"/>
  </edge>
  <edge id=":10_0" function="internal">
    <lane id=":10_0_0" index="0" disallow="pedestrian tram rail_urban rail rail_electric rail_fast ship" speed="19.44" length="47.65" width="3.75" shape="931.64,285.56,0.17 938.52,282.70,0.14 950.05,277.52,0.10 963.11,271.22,0.05 974.58,264.98"/>
  </edge>
  <edge id=":10_1" function="internal">
    <lane id=":10_1_0" index="0" disallow="pedestrian tram rail_urban rail rail_electric rail_fast ship" speed="22.22" length="47.14" width="3.75" shape="934.21,289.32 974.58,264.98"/>
    <lane id=":10_1_1" index="1" disallow="pedestrian tram rail_urban rail rail_electric rail_fast ship" speed="22.22" length="47.14" width="3.75" shape="936.15,292.53 976.52,268.19"/>
    <lane id=":10_1_2" index="2" disallow="pedestrian tram rail_urban rail rail_electric rail_fast ship" speed="22.22" length="47.14" width="3.75" shape="938.09,295.74 978.45,271.40"/>
  </edge>
  <edge id=":11_0" function="internal">
    <lane id=":11_0_0" index="0" disallow="pedestrian tram rail_urban rail rail_electric rail_fast ship" speed="16.67" length="47.56" width="3.75" shape="932.10,1094.09,19.87 935.31,1100.80,19.89 941.01,1112.05,19.93 947.89,1124.78,19.96 954.64,1135.94,20.00"/>
  </edge>
  <edge id=":11_1" function="internal">
    <lane id=":11_1_0" index="0" disallow="pedestrian tram rail_urban rail rail_electric rail_fast ship" speed="22.22" length="47.07" width="3.75" shape="928.50,1096.79,20.00 954.64,1135.94,20.00"/>
    <lane id=":11_1_1" index="1" disallow="pedestrian tram rail_urban rail rail_electric rail_fast ship" speed="22.22" length="47.07" width="3.75" shape="925.38,1098.87,20.00 951.52,1138.02,20.00"/>
    <lane id=":11_1_2" index="2" disallow="pedestrian tram rail_urban rail rail_electric rail_fast ship" speed="22.22" length="47.07" width="3.75" shape="922.26,1100.96,20.00 948.40,1140.10,20.00"/>
  </edge>
  <edge id=":12_0" function="internal">
    <lane id=":12_0_0" index="0" disallow="pedestrian tram rail_urban rail rail_electric rail_fast ship" speed="16.67" length="27.82" width="3.75" shape="582.61,668.17,20.00 581.79,663.69,20.00 579.65,657.94,20.00 575.89,651.19,20.00 570.21,643.69,20.00"/>
  </edge>
  <edge id=":12_1" function="internal">
    <lane id=":12_1_0" index="0" disallow="pedestrian tram rail_urban rail rail_electric rail_fast ship" speed="22.22" length="26.34" width="3.75" shape="587.41,663.62,20.00 570.21,643.69,20.00"/>
    <lane id=":12_1_1" index="1" disallow="pedestrian tram rail_urban rail rail_electric rail_fast ship" speed="22.22" length="26.34" width="3.75" shape="590.25,661.18,20.00 573.05,641.23,20.00"/>
    <lane id=":12_1_2" index="2" disallow="pedestrian tram rail_urban rail rail_electric rail_fast ship" speed="22.22" length="26.34" width="3.75" shape="593.10,658.73,20.00 575.88,638.78,20.00"/>
  </edge>
  <edge id=":13_0" function="internal">
    <lane id=":13_0_0" index="0" disallow="pedestrian tram rail_urban rail rail_electric rail_fast ship" speed="19.44" length="63.76" width="3.75" shape="350.37,659.67,0.16 358.81,654.38,0.14 374.07,644.51,0.09 390.78,633.45,0.04 403.60,624.59"/>
  </edge>
  <edge id=":13_1" function="internal">
    <lane id=":13_1_0" index="0" disallow="pedestrian tram rail_urban rail rail_electric rail_fast ship" speed="22.22" length="63.28" width="3.75" shape="353.14,663.04 403.60,624.59"/>
    <lane id=":13_1_1" index="1" disallow="pedestrian tram rail_urban rail rail_electric rail_fast ship" speed="22.22" length="63.28" width="3.75" shape="355.48,665.97 405.81,627.62"/>
    <lane id=":13_1_2" index="2" disallow="pedestrian tram rail_urban rail rail_electric rail_fast ship" speed="22.22" length="63.28" width="3.75" shape="357.81,668.91 408.02,630.65"/>
  </edge>
  <edge id=":13.12_0" function="internal">
    <lane id=":13.12_0_0" index="0" disallow="pedestrian tram rail_urban rail rail_electric rail_fast ship" speed="22.22" length="0.30" width="3.75" shape="649.75,702.64,20.00 649.94,702.87,20.00"/>
    <lane id=":13.12_0_1" index="1" disallow="pedestrian tram rail_urban rail rail_electric rail_fast ship" speed="22.22" length="0.30" width="3.75" shape="646.83,705.00,20.00 647.02,705.23,20.00"/>
    <lane id=":13.12_0_2" index="2" disallow="pedestrian tram rail_urban rail rail_electric rail_fast ship" speed="22.22" length="0.30" width="3.75" shape="643.91,707.35,20.00 644.10,707.58,20.00"/>
  </edge>
  <edge id=":14_0" function="internal">
    <lane id=":14_0_0" index="0" disallow="pedestrian tram rail_urban rail rail_electric rail_fast ship" speed="20.83" length="105.31" width="3.75" shape="704.39,460.89 690.01,468.87 661.76,484.86 631.98,501.92 612.97,513.15"/>
  </edge>
  <edge id=":14_1" function="internal">
    <lane id=":14_1_0" index="0" disallow="pedestrian tram rail_urban rail rail_electric rail_fast ship" speed="22.22" length="105.10" width="3.75" shape="702.08,457.48 612.97,513.15"/>
    <lane id=":14_1_1" index="1" disallow="pedestrian tram rail_urban rail rail_electric rail_fast ship" speed="22.22" length="105.10" width="3.75" shape="700.10,454.29 610.97,509.98"/>
    <lane id=":14_1_2" index="2" disallow="pedestrian tram rail_urban rail rail_electric rail_fast ship" speed="22.22" length="105.10" width="3.75" shape="698.13,451.11 608.97,506.81"/>
  </edge>
  <edge id=":15_0" function="internal">
    <lane id=":15_0_0" index="0" disallow="pedestrian tram rail_urban rail rail_electric rail_fast ship" speed="11.11" length="16.97" width="3.75" shape="838.79,736.38,12.05 841.12,753.18,12.10"/>
  </edge>
  <edge id=":15_1" function="internal">
    <lane id=":15_1_0" index="0" disallow="pedestrian tram rail_urban rail rail_electric rail_fast ship" speed="16.67" length="16.51" width="3.75" shape="834.76,738.11,12.05 836.93,741.44,12.06 838.80,745.28,12.07 840.24,749.30,12.09 841.12,753.18,12.10"/>
  </edge>
  <edge id=":18.17_0" function="internal">
    <lane id=":18.17_0_0" index="0" disallow="pedestrian tram rail_urban rail rail_electric rail_fast ship" speed="22.22" length="0.30" width="3.75" shape="632.24,717.17,20.00 632.05,716.94,20.00"/>
    <lane id=":18.17_0_1" index="1" disallow="pedestrian tram rail_urban rail rail_electric rail_fast ship" speed="22.22" length="0.30" width="3.75" shape="635.15,714.81,20.00 634.97,714.58,20.00"/>
    <lane id=":18.17_0_2" index="2" disallow="pedestrian tram rail_urban rail rail_electric rail_fast ship" speed="22.22" length="0.30" width="3.75" shape="638.07,712.46,20.00 637.88,712.22,20.00"/>
  </edge>
  <edge id=":2_0" function="internal">
    <lane id=":2_0_0" index="0" disallow="pedestrian tram rail_urban rail rail_electric rail_fast ship" speed="22.22" length="86.19" width="3.75" shape="89.95,900.88 103.26,887.21 122.31,867.02 139.94,848.08 149.01,838.13"/>
  </edge>
  <edge id=":2_1" function="internal">
    <lane id=":2_1_0" index="0" disallow="pedestrian tram rail_urban rail rail_electric rail_fast ship" speed="22.22" length="86.36" width="3.75" shape="89.95,900.88 152.14,840.91"/>
    <lane id=":2_1_1" index="1" disallow="pedestrian tram rail_urban rail rail_electric rail_fast ship" speed="22.22" length="86.36" width="3.75" shape="92.56,903.57 154.73,843.63"/>
    <lane id=":2_1_2" index="2" disallow="pedestrian tram rail_urban rail rail_electric rail_fast ship" speed="22.22" length="86.36" width="3.75" shape="95.17,906.26 157.31,846.34"/>
  </edge>
  <edge id=":23.22_0" function="internal">
    <lane id=":23.22_0_0" index="0" disallow="pedestrian tram rail_urban rail rail_electric rail_fast ship" speed="19.44" length="0.30" width="3.75" shape="512.55,905.83,9.30 512.26,905.75,9.29"/>
  </edge>
  <edge id=":26.25_0" function="internal">
    <lane id=":26.25_0_0" index="0" disallow="pedestrian tram rail_urban rail rail_electric rail_fast ship" speed="22.22" length="0.30" width="3.75" shape="235.39,595.23,9.20 235.42,594.93,9.21"/>
  </edge>
  <edge id=":28.27_0" function="internal">
    <lane id=":28.27_0_0" index="0" disallow="pedestrian tram rail_urban rail rail_electric rail_fast ship" speed="16.67" length="0.30" width="3.75" shape="598.49,328.55,8.97 598.79,328.59,8.96"/>
  </edge>
  <edge id=":3_0" function="internal">
    <lane id=":3_0_0" index="0" disallow="pedestrian tram rail_urban rail rail_electric rail_fast ship" speed="19.44" length="91.85" width="3.75" shape="173.20,170.98,20.00 187.14,185.28,20.00 208.19,206.24,20.00 228.04,225.74,20.00 238.38,235.69,20.00"/>
  </edge>
  <edge id=":3_1" function="internal">
    <lane id=":3_1_0" index="0" disallow="pedestrian tram rail_urban rail rail_electric rail_fast ship" speed="22.22" length="91.99" width="3.75" shape="173.20,170.98,20.00 235.48,238.68,20.00"/>
    <lane id=":3_1_1" index="1" disallow="pedestrian tram rail_urban rail rail_electric rail_fast ship" speed="22.22" length="91.99" width="3.75" shape="170.44,173.52,20.00 232.72,241.21,20.00"/>
    <lane id=":3_1_2" index="2" disallow="pedestrian tram rail_urban rail rail_electric rail_fast ship" speed="22.22" length="91.99" width="3.75" shape="167.69,176.06,20.00 229.96,243.75,20.00"/>
  </edge>
  <edge id=":30.29_0" function="internal">
    <lane id=":30.29_0_0" index="0" disallow="pedestrian tram rail_urban rail rail_electric rail_fast ship" speed="11.11" length="0.29" width="3.75" shape="835.96,692.72,10.10 835.94,693.01,10.11"/>
  </edge>
  <edge id=":33.32_0" function="internal">
    <lane id=":33.32_0_0" index="0" disallow="pedestrian tram rail_urban rail rail_electric rail_fast ship" speed="11.11" length="0.27" width="3.75" shape="501.04,713.25,10.13 501.30,713.30,10.17"/>
  </edge>
  <edge id=":35.34_0" function="internal">
    <lane id=":35.34_0_0" index="0" disallow="pedestrian tram rail_urban rail rail_electric rail_fast ship" speed="16.67" length="0.30" width="3.75" shape="28.94,465.33,10.52 28.82,465.60,10.51"/>
  </edge>
  <edge id=":37.36_0" function="internal">
    <lane id=":37.36_0_0" index="0" disallow="pedestrian tram rail_urban rail rail_electric rail_fast ship" speed="19.44" length="0.30" width="3.75" shape="1199.71,595.17,9.37 1199.64,594.88,9.37"/>
  </edge>
  <edge id=":39.38_0" function="internal">
    <lane id=":39.38_0_0" index="0" disallow="pedestrian tram rail_urban rail rail_electric rail_fast ship" speed="22.22" length="0.30" width="3.75" shape="537.73,646.09,9.18 538.02,646.13,9.18"/>
  </edge>
  <edge id=":4_0" function="internal">
    <lane id=":4_0_0" index="0" disallow="pedestrian tram rail_urban rail rail_electric rail_fast ship" speed="20.83" length="71.06" width="3.75" shape="675.15,734.93,20.00 685.69,747.91,19.97 700.22,765.16,19.94 713.69,780.85,19.91 721.02,789.19,19.89"/>
  </edge>
  <edge id=":4_1" function="internal">
    <lane id=":4_1_0" index="0" disallow="pedestrian tram rail_urban rail rail_electric rail_fast ship" speed="22.22" length="71.31" width="3.75" shape="675.15,734.93,20.00 717.91,792.10,20.00"/>
    <lane id=":4_1_1" index="1" disallow="pedestrian tram rail_urban rail rail_electric rail_fast ship" speed="22.22" length="71.31" width="3.75" shape="672.17,737.21,20.00 714.89,794.32,20.00"/>
    <lane id=":4_1_2" index="2" disallow="pedestrian tram rail_urban rail rail_electric rail_fast ship" speed="22.22" length="71.31" width="3.75" shape="669.20,739.50,20.00 711.86,796.53,20.00"/>
  </edge>
  <edge id=":4.3_0" function="internal">
    <lane id=":4.3_0_0" index="0" disallow="pedestrian tram rail_urban rail rail_electric rail_fast ship" speed="22.22" length="0.30" width="3.75" shape="417.49,642.62 417.25,642.79"/>
    <lane id=":4.3_0_1" index="1" disallow="pedestrian tram rail_urban rail rail_electric rail_fast ship" speed="22.22" length="0.30" width="3.75" shape="415.29,639.59 415.05,639.76"/>
    <lane id=":4.3_0_2" index="2" disallow="pedestrian tram rail_urban rail rail_electric rail_fast ship" speed="22.22" length="0.30" width="3.75" shape="413.08,636.55 412.84,636.73"/>
  </edge>
  <edge id=":5_0" function="internal">
    <lane id=":5_0_0" index="0" disallow="pedestrian tram rail_urban rail rail_electric rail_fast ship" speed="20.83" length="34.58" width="3.75" shape="944.02,1160.99,20.00 937.46,1152.16,19.98 930.87,1144.63,19.96 925.16,1138.82,19.95 921.21,1135.10,19.94"/>
  </edge>
  <edge id=":5_1" function="internal">
    <lane id=":5_1_0" index="0" disallow="pedestrian tram rail_urban rail rail_electric rail_fast ship" speed="22.22" length="34.74" width="3.75" shape="944.02,1160.99,20.00 924.75,1132.09,20.00"/>
    <lane id=":5_1_1" index="1" disallow="pedestrian tram rail_urban rail rail_electric rail_fast ship" speed="22.22" length="34.74" width="3.75" shape="947.14,1158.92,20.00 927.86,1130.01,20.00"/>
    <lane id=":5_1_2" index="2" disallow="pedestrian tram rail_urban rail rail_electric rail_fast ship" speed="22.22" length="34.74" width="3.75" shape="950.26,1156.84,20.00 930.98,1127.92,20.00"/>
  </edge>
  <edge id=":6_0" function="internal">
    <lane id=":6_0_0" index="0" disallow="pedestrian tram rail_urban rail rail_electric rail_fast ship" speed="19.44" length="85.06" width="3.75" shape="455.91,514.59,20.00 442.83,500.92,20.00 423.56,481.50,20.00 405.46,463.54,20.00 395.92,454.29,20.00"/>
  </edge>
  <edge id=":6_1" function="internal">
    <lane id=":6_1_0" index="0" disallow="pedestrian tram rail_urban rail rail_electric rail_fast ship" speed="22.22" length="85.16" width="3.75" shape="455.91,514.59,20.00 398.88,451.36,20.00"/>
    <lane id=":6_1_1" index="1" disallow="pedestrian tram rail_urban rail rail_electric rail_fast ship" speed="22.22" length="85.16" width="3.75" shape="458.70,512.08,20.00 401.66,448.84,20.00"/>
    <lane id=":6_1_2" index="2" disallow="pedestrian tram rail_urban rail rail_electric rail_fast ship" speed="22.22" length="85.16" width="3.75" shape="461.49,509.57,20.00 404.44,446.33,20.00"/>
  </edge>
  <edge id=":7_0" function="internal">
    <lane id=":7_0_0" index="0" disallow="pedestrian tram rail_urban rail rail_electric rail_fast ship" speed="20.83" length="31.66" width="3.75" shape="109.70,920.65,0.06 105.25,922.88,0.05 99.07,926.50,0.04 91.72,931.67,0.02 83.77,938.58"/>
  </edge>
  <edge id=":7_1" function="internal">
    <lane id=":7_1_0" index="0" disallow="pedestrian tram rail_urban rail rail_electric rail_fast ship" speed="22.22" length="30.76" width="3.75" shape="105.81,917.13 83.77,938.58"/>
    <lane id=":7_1_1" index="1" disallow="pedestrian tram rail_urban rail rail_electric rail_fast ship" speed="22.22" length="30.76" width="3.75" shape="103.20,914.45 81.15,935.90"/>
    <lane id=":7_1_2" index="2" disallow="pedestrian tram rail_urban rail rail_electric rail_fast ship" speed="22.22" length="30.76" width="3.75" shape="100.58,911.76 78.54,933.21"/>
  </edge>
  <edge id=":8_0" function="internal">
    <lane id=":8_0_0" index="0" disallow="pedestrian tram rail_urban rail rail_electric rail_fast ship" speed="22.22" length="32.86" width="3.75" shape="185.03,224.83,19.91 182.69,220.24,19.93 178.91,213.68,19.95 173.64,205.89,19.97 166.82,197.62,20.00"/>
  </edge>
  <edge id=":8_1" function="internal">
    <lane id=":8_1_0" index="0" disallow="pedestrian tram rail_urban rail rail_electric rail_fast ship" speed="22.22" length="32.03" width="3.75" shape="188.51,221.18,20.00 166.82,197.62,20.00"/>
    <lane id=":8_1_1" index="1" disallow="pedestrian tram rail_urban rail rail_electric rail_fast ship" speed="22.22" length="32.03" width="3.75" shape="191.27,218.64,20.00 169.58,195.08,20.00"/>
    <lane id=":8_1_2" index="2" disallow="pedestrian tram rail_urban rail rail_electric rail_fast ship" speed="22.22" length="32.03" width="3.75" shape="194.03,216.11,20.00 172.33,192.54,20.00"/>
  </edge>
  <edge id=":9_0" function="internal">
    <lane id=":9_0_0" index="0" disallow="pedestrian tram rail_urban rail rail_electric rail_fast ship" speed="22.22" length="14.21" width="3.75" shape="229.27,671.80,6.34 230.79,657.67,6.39"/>
  </edge>
  <edge id=":9_1" function="internal">
    <lane id=":9_1_0" index="0" disallow="pedestrian tram rail_urban rail rail_electric rail_fast ship" speed="14.00" length="16.09" width="3.75" shape="229.27,671.80,6.34 230.16,667.98,6.35 231.79,664.18,6.37 234.01,660.70,6.38 236.66,657.83,6.40"/>
  </edge>
  <edge id=":9.8_0" function="internal">
    <lane id=":9.8_0_0" index="0" disallow="pedestrian tram rail_urban rail rail_electric rail_fast ship" speed="22.22" length="0.30" width="3.75" shape="403.87,624.40 404.11,624.22"/>
    <lane id=":9.8_0_1" index="1" disallow="pedestrian tram rail_urban rail rail_electric rail_fast ship" speed="22.22" length="0.30" width="3.75" shape="406.08,627.43 406.32,627.25"/>
    <lane id=":9.8_0_2" index="2" disallow="pedestrian tram rail_urban rail rail_electric rail_fast ship" speed="22.22" length="0.30" width="3.75" shape="408.28,630.46 408.52,630.29"/>
  </edge>
  <edge id="-0" from="0.begin" to="0" priority="1" type="driving" shape="1102.73,202.87 1101.77,203.48 1100.78,204.09 1099.76,204.73 1098.71,205.38 1097.63,206.05 1096.52,206.74 1095.38,207.44 1094.21,208.16 1093.02,208.90 1091.80,209.65 1090.54,210.42 1089.27,211.21 1087.96,212.01 1086.63,212.82 1085.27,213.66 1083.88,214.50 1082.47,215.37 1081.02,216.25 1079.56,217.14 1078.06,218.05 1076.55,218.98 1075.00,219.92 1073.43,220.88 1071.83,221.85 1070.21,222.83 1068.57,223.83 1066.90,224.85 1065.20,225.88 1063.48,226.92 1061.74,227.98 1059.97,229.05 1058.18,230.13 1056.36,231.23 1054.53,232.34 1052.66,233.47 1050.78,234.61 1048.87,235.76 1046.94,236.93 1044.99,238.11 1043.02,239.30 1041.02,240.51 1039.00,241.73 1036.96,242.96 1034.90,244.21 1032.82,245.46 1030.72,246.73 1028.59,248.01 1026.45,249.31 1024.28,250.61 1022.10,251.93 1019.89,253.26 1017.67,254.60 1015.42,255.96 1013.16,257.32 1010.88,258.70 1008.57,260.09 1006.25,261.49">
    <lane id="-0_0" index="0" disallow="pedestrian tram rail_urban rail rail_electric rail_fast ship" speed="22.22" length="108.96" width="3.75" shape="1107.70,210.82 1106.73,211.43 1105.74,212.05 1104.71,212.69 1103.65,213.35 1102.56,214.02 1101.45,214.71 1100.31,215.42 1099.13,216.14 1097.94,216.88 1096.71,217.64 1095.45,218.41 1094.17,219.19 1092.86,220.00 1091.52,220.82 1090.16,221.65 1088.77,222.50 1087.35,223.37 1085.91,224.25 1084.44,225.15 1082.94,226.06 1081.42,226.99 1079.87,227.93 1078.30,228.89 1076.70,229.86 1075.08,230.84 1073.43,231.84 1071.76,232.86 1070.06,233.89 1068.34,234.93 1066.60,235.99 1064.83,237.06 1063.04,238.15 1061.22,239.25 1059.38,240.36 1057.52,241.49 1055.63,242.63 1053.72,243.79 1051.79,244.95 1049.84,246.13 1047.86,247.33 1045.87,248.54 1043.85,249.75 1041.81,250.99 1039.75,252.23 1037.66,253.49 1035.56,254.76 1033.44,256.04 1031.29,257.34 1029.12,258.64 1026.94,259.96 1024.73,261.29 1022.51,262.63 1020.26,263.99 1018.00,265.35 1015.72,266.73 1014.53,267.44" type="driving"/>
    <lane id="-0_1" index="1" disallow="pedestrian tram rail_urban rail rail_electric rail_fast ship" speed="22.22" length="108.96" width="3.75" shape="1105.71,207.64 1104.75,208.25 1103.75,208.87 1102.73,209.51 1101.67,210.16 1100.59,210.83 1099.48,211.52 1098.33,212.23 1097.17,212.95 1095.97,213.69 1094.74,214.44 1093.49,215.21 1092.21,216.00 1090.90,216.80 1089.57,217.62 1088.20,218.45 1086.81,219.30 1085.40,220.17 1083.96,221.05 1082.49,221.95 1080.99,222.86 1079.47,223.78 1077.93,224.73 1076.35,225.68 1074.76,226.65 1073.13,227.64 1071.49,228.64 1069.82,229.65 1068.12,230.68 1066.40,231.73 1064.65,232.79 1062.89,233.86 1061.09,234.94 1059.28,236.04 1057.44,237.16 1055.58,238.28 1053.69,239.42 1051.78,240.58 1049.85,241.75 1047.90,242.93 1045.93,244.12 1043.93,245.33 1041.91,246.54 1039.87,247.78 1037.81,249.02 1035.73,250.28 1033.62,251.55 1031.50,252.83 1029.35,254.12 1027.19,255.43 1025.00,256.75 1022.80,258.08 1020.57,259.42 1018.33,260.77 1016.06,262.14 1013.78,263.52 1012.59,264.23" type="driving"/>
    <lane id="-0_2" index="2" disallow="pedestrian tram rail_urban rail rail_electric rail_fast ship" speed="22.22" length="108.96" width="3.75" shape="1103.73,204.46 1102.76,205.07 1101.77,205.69 1100.75,206.32 1099.69,206.98 1098.61,207.65 1097.50,208.33 1096.36,209.04 1095.20,209.76 1094.00,210.49 1092.78,211.25 1091.53,212.02 1090.25,212.80 1088.94,213.60 1087.61,214.42 1086.25,215.26 1084.86,216.10 1083.44,216.97 1082.00,217.85 1080.53,218.74 1079.04,219.66 1077.52,220.58 1075.98,221.52 1074.40,222.48 1072.81,223.45 1071.19,224.43 1069.54,225.43 1067.87,226.45 1066.17,227.48 1064.45,228.52 1062.71,229.58 1060.94,230.65 1059.15,231.74 1057.34,232.84 1055.50,233.95 1053.63,235.08 1051.75,236.22 1049.84,237.37 1047.91,238.54 1045.96,239.72 1043.99,240.91 1041.99,242.12 1039.97,243.33 1037.93,244.57 1035.87,245.81 1033.79,247.07 1031.68,248.34 1029.56,249.62 1027.42,250.91 1025.25,252.22 1023.07,253.54 1020.86,254.87 1018.64,256.21 1016.39,257.56 1014.13,258.93 1011.84,260.31 1010.66,261.02" type="driving"/>
  </edge>
  <edge id="-1" from="0" to="14" priority="1" type="driving" shape="1006.25,261.49 1004.92,262.29 1003.58,263.10 1002.23,263.91 1000.88,264.73 999.52,265.54 998.16,266.37 996.79,267.19 995.41,268.02 994.03,268.86 992.64,269.69 991.25,270.53 989.85,271.37 988.44,272.22 987.03,273.07 985.62,273.92 984.20,274.78 982.77,275.64 981.34,276.50 979.90,277.37 978.46,278.24 977.01,279.11 975.56,279.99 974.10,280.87 972.63,281.75 971.16,282.64 969.69,283.53 968.21,284.42 966.73,285.31 965.24,286.21 963.74,287.11 962.24,288.02 960.74,288.92 959.23,289.83 957.72,290.75 956.20,291.66 954.67,292.58 953.15,293.50 951.61,294.43 950.07,295.35 948.53,296.29 946.99,297.22 945.43,298.15 943.88,299.09 942.32,300.03 940.75,300.98 939.18,301.93 937.61,302.88 936.03,303.83 934.45,304.78 932.86,305.74 931.27,306.70 929.68,307.66 928.08,308.63 926.48,309.60 924.87,310.57 923.26,311.54 921.64,312.52 920.02,313.49 918.40,314.47 916.77,315.46 915.14,316.44 913.51,317.43 911.87,318.42 910.23,319.41 908.58,320.41 906.93,321.40 905.28,322.40 903.62,323.41 901.96,324.41 900.30,325.42 898.63,326.42 896.96,327.43 895.29,328.45 893.61,329.46 891.93,330.48 890.25,331.50 888.56,332.52 886.87,333.54 885.18,334.57 883.48,335.59 881.78,336.62 880.08,337.65 878.37,338.69 876.66,339.72 874.95,340.76 873.24,341.80 871.52,342.84 869.80,343.88 868.08,344.93 866.35,345.97 864.62,347.02 862.89,348.07 861.16,349.12 859.42,350.18 857.68,351.23 855.94,352.29 854.20,353.35 852.45,354.41 850.70,355.47 848.95,356.53 847.19,357.60 845.44,358.66 843.68,359.73 841.92,360.80 840.16,361.87 838.39,362.95 836.62,364.02 834.86,365.10 833.08,366.17 831.31,367.25 829.54,368.33 827.76,369.41 825.98,370.49 824.20,371.58 822.42,372.66 820.63,373.75 818.84,374.84 817.06,375.93 815.27,377.02 813.48,378.11 811.68,379.20 809.89,380.29 808.09,381.39 806.29,382.49 804.49,383.58 802.69,384.68 800.89,385.78 799.09,386.88 797.28,387.98 795.48,389.08 793.67,390.19 791.86,391.29 790.05,392.40 788.24,393.50 786.43,394.61 784.62,395.72 782.81,396.83 780.99,397.94 779.17,399.05 777.36,400.16 775.54,401.27 773.72,402.38 771.90,403.50 770.08,404.61 768.26,405.73 766.44,406.84 764.62,407.96 762.80,409.08 760.97,410.19 759.15,411.31 757.33,412.43 755.50,413.55 753.68,414.67 751.85,415.79 750.03,416.91 748.20,418.03 746.37,419.15 744.55,420.28 742.72,421.40 740.90,422.52 739.07,423.64 737.24,424.77 735.41,425.89 733.59,427.02 731.76,428.14 729.93,429.27 728.11,430.39 726.28,431.52 724.45,432.64 722.63,433.77 720.80,434.89 718.97,436.02 717.15,437.15 715.32,438.27 713.50,439.40 711.67,440.53 709.85,441.65 708.03,442.78 706.20,443.91 704.38,445.03 702.56,446.16 700.74,447.28 698.92,448.41 697.10,449.54 695.28,450.66 693.46,451.79 691.65,452.92 689.83,454.04 688.02,455.17 686.20,456.29 684.39,457.42 682.58,458.54 680.76,459.67 678.95,460.79 677.14,461.91 675.34,463.04 673.53,464.16 671.73,465.28 669.92,466.41 668.12,467.53 666.32,468.65 664.52,469.77 662.72,470.89 660.92,472.01 659.13,473.13 657.33,474.25 655.54,475.37 653.75,476.49 651.96,477.60 650.17,478.72 648.39,479.84 646.60,480.95 644.82,482.07 643.04,483.18 641.26,484.29 639.49,485.40 637.71,486.52 635.94,487.63 634.17,488.74 632.40,489.85 630.63,490.95 628.87,492.06 627.11,493.17 625.35,494.27 623.59,495.38 621.83,496.48 620.08,497.59 618.33,498.69 616.58,499.79 614.84,500.89 613.09,501.99 611.35,503.08">