<?xml version='1.0' encoding='UTF-8'?>
<!-- generated on 2022-11-13 00:02:15 by Eclipse SUMO netconvert Version 1.13.0
<configuration xmlns:xsi="http://www.w3.org/2001/XMLSchema-instance" xsi:noNamespaceSchemaLocation="http://sumo.dlr.de/xsd/netconvertConfiguration.xsd">

    <input>
        <opendrive-files value="map_v4\17\572235\572235.xodr"/>
    </input>

    <output>
        <output-file value="C:\Users\LinGe\AppData\Local\Temp\tmp1g1e8kla\572235.net.xml"/>
    </output>

    <processing>
        <geometry.max-grade.fix value="false"/>
    </processing>

    <tls_building>
        <tls.left-green.time value="0"/>
    </tls_building>

    <junctions>
        <rectangular-lane-cut value="true"/>
    </junctions>

    <report>
        <aggregate-warnings value="5"/>
    </report>

</configuration>
-->
<net xmlns:xsi="http://www.w3.org/2001/XMLSchema-instance" version="1.9" junctionCornerDetail="5" rectangularLaneCut="true" limitTurnSpeed="5.50" xsi:noNamespaceSchemaLocation="http://sumo.dlr.de/xsd/net_file.xsd">
  <location netOffset="48.00,101.26" convBoundary="0.00,0.00,1149.18,1302.51" origBoundary="-48.00,-101.26,1101.18,1201.26" projParameter="!"/>
  <type id="bidirectional" priority="1" speed="1.39" disallow="pedestrian tram rail_urban rail rail_electric rail_fast ship" width="3.65"/>
  <type id="border" priority="0" speed="1.39" disallow="all" discard="1" width="0.10"/>
  <type id="driving" priority="1" speed="13.89" disallow="pedestrian tram rail_urban rail rail_electric rail_fast ship" width="3.65"/>
  <type id="entry" priority="1" speed="22.22" disallow="pedestrian tram rail_urban rail rail_electric rail_fast ship" width="3.65"/>
  <type id="exit" priority="1" speed="22.22" disallow="pedestrian tram rail_urban rail rail_electric rail_fast ship" width="3.65"/>
  <type id="median" priority="0" speed="1.39" disallow="all" discard="1" width="0.10"/>
  <type id="mwyEntry" priority="1" speed="22.22" allow="private emergency authority army vip passenger hov taxi bus coach delivery truck trailer motorcycle evehicle custom1 custom2" width="3.65"/>
  <type id="mwyExit" priority="1" speed="22.22" allow="private emergency authority army vip passenger hov taxi bus coach delivery truck trailer motorcycle evehicle custom1 custom2" width="3.65"/>
  <type id="none" priority="0" speed="1.39" disallow="all" discard="1" width="1.00"/>
  <type id="offRamp" priority="1" speed="22.22" allow="private emergency authority army vip passenger hov taxi bus coach delivery truck trailer motorcycle evehicle custom1 custom2" width="3.65"/>
  <type id="onRamp" priority="1" speed="22.22" allow="private emergency authority army vip passenger hov taxi bus coach delivery truck trailer motorcycle evehicle custom1 custom2" width="3.65"/>
  <type id="parking" priority="1" speed="1.39" disallow="pedestrian tram rail_urban rail rail_electric rail_fast ship" width="2.50"/>
  <type id="rail" priority="3" speed="33.33" allow="rail_urban rail rail_electric rail_fast" width="3.65"/>
  <type id="restricted" priority="0" speed="13.89" disallow="all" width="3.65"/>
  <type id="roadWorks" priority="0" speed="1.39" allow="authority" width="3.65"/>
  <type id="shoulder" priority="0" speed="1.39" disallow="all" discard="1" width="1.00"/>
  <type id="special1" priority="1" speed="22.22" allow="custom1" discard="1" width="3.65"/>
  <type id="special2" priority="1" speed="22.22" allow="custom2" discard="1" width="3.65"/>
  <type id="special3" priority="1" speed="22.22" allow="custom1 custom2" discard="1" width="3.65"/>
  <type id="stop" priority="1" speed="13.89" disallow="pedestrian tram rail_urban rail rail_electric rail_fast ship" width="3.65"/>
  <type id="tram" priority="2" speed="13.89" allow="tram" width="3.65"/>
  <edge id=":0_0" function="internal">
    <lane id=":0_0_0" index="0" disallow="pedestrian tram rail_urban rail rail_electric rail_fast ship" speed="16.67" length="57.05" width="3.75" shape="963.89,325.72 951.75,333.71 937.29,343.97 924.52,353.39 917.47,358.84"/>
  </edge>
  <edge id=":0_1" function="internal">
    <lane id=":0_1_0" index="0" disallow="pedestrian tram rail_urban rail rail_electric rail_fast ship" speed="22.22" length="57.20" width="3.75" shape="963.89,325.72 914.94,355.30"/>
    <lane id=":0_1_1" index="1" disallow="pedestrian tram rail_urban rail rail_electric rail_fast ship" speed="22.22" length="57.20" width="3.75" shape="961.95,322.51 913.00,352.09"/>
    <lane id=":0_1_2" index="2" disallow="pedestrian tram rail_urban rail rail_electric rail_fast ship" speed="22.22" length="57.20" width="3.75" shape="960.02,319.30 911.06,348.88"/>
  </edge>
  <edge id=":1_0" function="internal">
    <lane id=":1_0_0" index="0" disallow="pedestrian tram rail_urban rail rail_electric rail_fast ship" speed="16.67" length="44.33" width="3.75" shape="230.67,816.80 239.54,807.95,0.01 248.50,798.04,0.02 255.94,789.28,0.03 260.27,783.86,0.03"/>
  </edge>
  <edge id=":1_1" function="internal">
    <lane id=":1_1_0" index="0" disallow="pedestrian tram rail_urban rail rail_electric rail_fast ship" speed="22.22" length="44.54" width="3.75" shape="230.67,816.80 263.65,786.84"/>
    <lane id=":1_1_1" index="1" disallow="pedestrian tram rail_urban rail rail_electric rail_fast ship" speed="22.22" length="44.54" width="3.75" shape="233.20,819.57 266.17,789.63"/>
    <lane id=":1_1_2" index="2" disallow="pedestrian tram rail_urban rail rail_electric rail_fast ship" speed="22.22" length="44.54" width="3.75" shape="235.73,822.34 268.68,792.41"/>
  </edge>
  <edge id=":10_0" function="internal">
    <lane id=":10_0_0" index="0" disallow="pedestrian tram rail_urban rail rail_electric rail_fast ship" speed="16.67" length="21.46" width="3.75" shape="1000.06,1175.04,19.99 1001.00,1178.98,19.99 1002.50,1183.46,20.00 1005.16,1188.45,20.00 1009.60,1193.91,20.00"/>
  </edge>
  <edge id=":10_1" function="internal">
    <lane id=":10_1_0" index="0" disallow="pedestrian tram rail_urban rail rail_electric rail_fast ship" speed="22.22" length="19.91" width="3.75" shape="995.68,1179.67,20.00 1009.60,1193.91,20.00"/>
    <lane id=":10_1_1" index="1" disallow="pedestrian tram rail_urban rail rail_electric rail_fast ship" speed="22.22" length="19.91" width="3.75" shape="993.00,1182.29,20.00 1006.92,1196.53,20.00"/>
    <lane id=":10_1_2" index="2" disallow="pedestrian tram rail_urban rail rail_electric rail_fast ship" speed="22.22" length="19.91" width="3.75" shape="990.32,1184.91,20.00 1004.24,1199.15,20.00"/>
  </edge>
  <edge id=":11_0" function="internal">
    <lane id=":11_0_0" index="0" disallow="pedestrian tram rail_urban rail rail_electric rail_fast ship" speed="19.44" length="74.82" width="3.75" shape="389.71,671.80,0.00 450.68,628.43"/>
  </edge>
  <edge id=":11_1" function="internal">
    <lane id=":11_1_0" index="0" disallow="pedestrian tram rail_urban rail rail_electric rail_fast ship" speed="22.22" length="74.43" width="3.75" shape="392.47,675.02 450.68,628.43"/>
    <lane id=":11_1_1" index="1" disallow="pedestrian tram rail_urban rail rail_electric rail_fast ship" speed="22.22" length="74.43" width="3.75" shape="394.86,677.92 452.97,631.40"/>
    <lane id=":11_1_2" index="2" disallow="pedestrian tram rail_urban rail rail_electric rail_fast ship" speed="22.22" length="74.43" width="3.75" shape="397.25,680.81 455.26,634.37"/>
  </edge>
  <edge id=":11.10_0" function="internal">
    <lane id=":11.10_0_0" index="0" disallow="pedestrian tram rail_urban rail rail_electric rail_fast ship" speed="22.22" length="0.30" width="3.75" shape="601.87,756.60,20.00 602.06,756.83,20.00"/>
    <lane id=":11.10_0_1" index="1" disallow="pedestrian tram rail_urban rail rail_electric rail_fast ship" speed="22.22" length="0.30" width="3.75" shape="598.95,758.95,20.00 599.14,759.19,20.00"/>
    <lane id=":11.10_0_2" index="2" disallow="pedestrian tram rail_urban rail rail_electric rail_fast ship" speed="22.22" length="0.30" width="3.75" shape="596.04,761.31,20.00 596.23,761.55,20.00"/>
  </edge>
  <edge id=":16.15_0" function="internal">
    <lane id=":16.15_0_0" index="0" disallow="pedestrian tram rail_urban rail rail_electric rail_fast ship" speed="22.22" length="0.30" width="3.75" shape="584.36,771.13,20.00 584.17,770.89,20.00"/>
    <lane id=":16.15_0_1" index="1" disallow="pedestrian tram rail_urban rail rail_electric rail_fast ship" speed="22.22" length="0.30" width="3.75" shape="587.28,768.77,20.00 587.09,768.54,20.00"/>
    <lane id=":16.15_0_2" index="2" disallow="pedestrian tram rail_urban rail rail_electric rail_fast ship" speed="22.22" length="0.30" width="3.75" shape="590.19,766.41,20.00 590.01,766.18,20.00"/>
  </edge>
  <edge id=":2_0" function="internal">
    <lane id=":2_0_0" index="0" disallow="pedestrian tram rail_urban rail rail_electric rail_fast ship" speed="22.22" length="121.41" width="3.75" shape="135.10,105.88,20.00 207.84,203.09,20.00"/>
  </edge>
  <edge id=":2_1" function="internal">
    <lane id=":2_1_0" index="0" disallow="pedestrian tram rail_urban rail rail_electric rail_fast ship" speed="22.22" length="121.50" width="3.75" shape="135.10,105.88,20.00 204.60,205.54,20.00"/>
    <lane id=":2_1_1" index="1" disallow="pedestrian tram rail_urban rail rail_electric rail_fast ship" speed="22.22" length="121.50" width="3.75" shape="132.02,108.03,20.00 201.53,207.69,20.00"/>
    <lane id=":2_1_2" index="2" disallow="pedestrian tram rail_urban rail rail_electric rail_fast ship" speed="22.22" length="121.50" width="3.75" shape="128.95,110.17,20.00 198.45,209.84,20.00"/>
  </edge>
  <edge id=":2.1_0" function="internal">
    <lane id=":2.1_0_0" index="0" disallow="pedestrian tram rail_urban rail rail_electric rail_fast ship" speed="22.22" length="0.30" width="3.75" shape="499.84,619.98 499.60,620.16"/>
    <lane id=":2.1_0_1" index="1" disallow="pedestrian tram rail_urban rail rail_electric rail_fast ship" speed="22.22" length="0.30" width="3.75" shape="497.63,616.95 497.39,617.12"/>
    <lane id=":2.1_0_2" index="2" disallow="pedestrian tram rail_urban rail rail_electric rail_fast ship" speed="22.22" length="0.30" width="3.75" shape="495.43,613.91 495.18,614.09"/>
  </edge>
  <edge id=":20.19_0" function="internal">
    <lane id=":20.19_0_0" index="0" disallow="pedestrian tram rail_urban rail rail_electric rail_fast ship" speed="16.67" length="0.30" width="3.75" shape="556.22,950.70,10.25 555.93,950.62,10.24"/>
  </edge>
  <edge id=":22.21_0" function="internal">
    <lane id=":22.21_0_0" index="0" disallow="pedestrian tram rail_urban rail rail_electric rail_fast ship" speed="22.22" length="0.30" width="3.75" shape="446.79,348.74,12.10 447.09,348.79,12.09"/>
  </edge>
  <edge id=":25.24_0" function="internal">
    <lane id=":25.24_0_0" index="0" disallow="pedestrian tram rail_urban rail rail_electric rail_fast ship" speed="11.11" length="0.30" width="3.75" shape="754.92,754.88,10.13 754.93,755.18,10.13"/>
  </edge>
  <edge id=":27.26_0" function="internal">
    <lane id=":27.26_0_0" index="0" disallow="pedestrian tram rail_urban rail rail_electric rail_fast ship" speed="11.11" length="0.30" width="3.75" shape="606.21,650.18,13.99 605.92,650.12,14.00"/>
  </edge>
  <edge id=":29.28_0" function="internal">
    <lane id=":29.28_0_0" index="0" disallow="pedestrian tram rail_urban rail rail_electric rail_fast ship" speed="11.11" length="0.29" width="3.75" shape="863.84,369.60,10.24 864.10,369.74,10.24"/>
  </edge>
  <edge id=":3_0" function="internal">
    <lane id=":3_0_0" index="0" disallow="pedestrian tram rail_urban rail rail_electric rail_fast ship" speed="19.44" length="43.04" width="3.75" shape="929.17,1144.05,20.00 920.17,1135.61,19.96 910.28,1127.31,19.93 901.58,1120.48,19.89 896.17,1116.46,19.87"/>
  </edge>
  <edge id=":3_1" function="internal">
    <lane id=":3_1_0" index="0" disallow="pedestrian tram rail_urban rail rail_electric rail_fast ship" speed="22.22" length="43.20" width="3.75" shape="929.17,1144.05,20.00 899.06,1113.07,20.00"/>
    <lane id=":3_1_1" index="1" disallow="pedestrian tram rail_urban rail rail_electric rail_fast ship" speed="22.22" length="43.20" width="3.75" shape="931.85,1141.44,20.00 901.75,1110.46,20.00"/>
    <lane id=":3_1_2" index="2" disallow="pedestrian tram rail_urban rail rail_electric rail_fast ship" speed="22.22" length="43.20" width="3.75" shape="934.54,1138.82,20.00 904.44,1107.85,20.00"/>
  </edge>
  <edge id=":31.30_0" function="internal">
    <lane id=":31.30_0_0" index="0" disallow="pedestrian tram rail_urban rail rail_electric rail_fast ship" speed="16.67" length="0.30" width="3.75" shape="4.82,600.77,9.29 4.88,601.07,9.29"/>
  </edge>
  <edge id=":4_0" function="internal">
    <lane id=":4_0_0" index="0" disallow="pedestrian tram rail_urban rail rail_electric rail_fast ship" speed="19.44" length="7.99" width="3.75" shape="433.79,569.34,20.00 429.11,562.86,20.00"/>
  </edge>
  <edge id=":4_1" function="internal">
    <lane id=":4_1_0" index="0" disallow="pedestrian tram rail_urban rail rail_electric rail_fast ship" speed="22.22" length="4.04" width="3.75" shape="433.79,569.34,20.00 431.43,566.06,20.00"/>
    <lane id=":4_1_1" index="1" disallow="pedestrian tram rail_urban rail rail_electric rail_fast ship" speed="22.22" length="4.04" width="3.75" shape="436.84,567.15,20.00 434.48,563.87,20.00"/>
    <lane id=":4_1_2" index="2" disallow="pedestrian tram rail_urban rail rail_electric rail_fast ship" speed="22.22" length="4.04" width="3.75" shape="439.88,564.96,20.00 437.52,561.68,20.00"/>
  </edge>
  <edge id=":5_0" function="internal">
    <lane id=":5_0_0" index="0" disallow="pedestrian tram rail_urban rail rail_electric rail_fast ship" speed="19.44" length="42.21" width="3.75" shape="166.61,913.67,0.12 161.00,917.15,0.10 152.12,923.25,0.07 142.01,930.83,0.03 132.71,938.73"/>
  </edge>
  <edge id=":5_1" function="internal">
    <lane id=":5_1_0" index="0" disallow="pedestrian tram rail_urban rail rail_electric rail_fast ship" speed="22.22" length="41.55" width="3.75" shape="163.06,910.35 132.71,938.73"/>
    <lane id=":5_1_1" index="1" disallow="pedestrian tram rail_urban rail rail_electric rail_fast ship" speed="22.22" length="41.55" width="3.75" shape="160.50,907.61 130.15,935.99"/>
    <lane id=":5_1_2" index="2" disallow="pedestrian tram rail_urban rail rail_electric rail_fast ship" speed="22.22" length="41.55" width="3.75" shape="157.94,904.87 127.59,933.25"/>
  </edge>
  <edge id=":6_0" function="internal">
    <lane id=":6_0_0" index="0" disallow="pedestrian tram rail_urban rail rail_electric rail_fast ship" speed="22.22" length="108.71" width="3.75" shape="951.62,301.78,0.00 1046.82,249.30"/>
  </edge>
  <edge id=":6_1" function="internal">
    <lane id=":6_1_0" index="0" disallow="pedestrian tram rail_urban rail rail_electric rail_fast ship" speed="22.22" length="108.48" width="3.75" shape="953.86,305.22 1046.82,249.30"/>
    <lane id=":6_1_1" index="1" disallow="pedestrian tram rail_urban rail rail_electric rail_fast ship" speed="22.22" length="108.48" width="3.75" shape="955.80,308.43 1048.76,252.51"/>
    <lane id=":6_1_2" index="2" disallow="pedestrian tram rail_urban rail rail_electric rail_fast ship" speed="22.22" length="108.48" width="3.75" shape="957.73,311.64 1050.69,255.73"/>
  </edge>
  <edge id=":7_0" function="internal">
    <lane id=":7_0_0" index="0" disallow="pedestrian tram rail_urban rail rail_electric rail_fast ship" speed="16.67" length="89.19" width="3.75" shape="930.95,1107.33,20.00 940.05,1117.89,20.00 957.80,1138.12,20.00 976.93,1159.63,20.00 990.17,1174.03,20.00"/>
  </edge>
  <edge id=":7_1" function="internal">
    <lane id=":7_1_0" index="0" disallow="pedestrian tram rail_urban rail rail_electric rail_fast ship" speed="22.22" length="88.95" width="3.75" shape="928.09,1110.34,20.00 990.17,1174.03,20.00"/>
    <lane id=":7_1_1" index="1" disallow="pedestrian tram rail_urban rail rail_electric rail_fast ship" speed="22.22" length="88.95" width="3.75" shape="925.40,1112.95,20.00 987.49,1176.65,20.00"/>
    <lane id=":7_1_2" index="2" disallow="pedestrian tram rail_urban rail rail_electric rail_fast ship" speed="22.22" length="88.95" width="3.75" shape="922.71,1115.57,20.00 984.80,1179.27,20.00"/>
  </edge>
  <edge id=":7.6_0" function="internal">
    <lane id=":7.6_0_0" index="0" disallow="pedestrian tram rail_urban rail rail_electric rail_fast ship" speed="22.22" length="0.30" width="3.75" shape="486.21,601.76 486.46,601.58"/>
    <lane id=":7.6_0_1" index="1" disallow="pedestrian tram rail_urban rail rail_electric rail_fast ship" speed="22.22" length="0.30" width="3.75" shape="488.42,604.79 488.66,604.62"/>
    <lane id=":7.6_0_2" index="2" disallow="pedestrian tram rail_urban rail rail_electric rail_fast ship" speed="22.22" length="0.30" width="3.75" shape="490.63,607.82 490.87,607.65"/>
  </edge>
  <edge id=":8_0" function="internal">
    <lane id=":8_0_0" index="0" disallow="pedestrian tram rail_urban rail rail_electric rail_fast ship" speed="11.11" length="30.80" width="3.75" shape="764.68,633.94,7.93 764.11,640.12,7.98 763.77,649.29,8.04 763.63,658.48,8.11 763.66,664.70,8.16"/>
  </edge>
  <edge id=":8_1" function="internal">
    <lane id=":8_1_0" index="0" disallow="pedestrian tram rail_urban rail rail_electric rail_fast ship" speed="11.11" length="30.76" width="3.75" shape="764.68,633.94,7.93 759.69,664.29,7.96"/>
  </edge>
  <edge id=":9_0" function="internal">
    <lane id=":9_0_0" index="0" disallow="pedestrian tram rail_urban rail rail_electric rail_fast ship" speed="22.22" length="4.04" width="3.75" shape="431.31,565.90,20.00 428.96,562.62,20.00"/>
    <lane id=":9_0_1" index="1" disallow="pedestrian tram rail_urban rail rail_electric rail_fast ship" speed="22.22" length="4.04" width="3.75" shape="434.36,563.71,20.00 432.00,560.43,20.00"/>
    <lane id=":9_0_2" index="2" disallow="pedestrian tram rail_urban rail rail_electric rail_fast ship" speed="22.22" length="4.04" width="3.75" shape="437.40,561.52,20.00 435.04,558.24,20.00"/>
  </edge>
  <edge id=":9_3" function="internal">
    <lane id=":9_3_0" index="0" disallow="pedestrian tram rail_urban rail rail_electric rail_fast ship" speed="16.67" length="7.92" width="3.75" shape="433.67,568.98,20.00 428.96,562.62,20.00"/>
  </edge>
  <edge id="-0" from="0.begin" to="0" priority="1" type="driving" shape="1149.18,202.87 1148.36,203.39 1147.52,203.91 1146.66,204.45 1145.78,204.99 1144.88,205.55 1143.96,206.12 1143.02,206.70 1142.06,207.29 1141.09,207.90 1140.09,208.51 1139.08,209.13 1138.05,209.77 1137.00,210.41 1135.93,211.07 1134.84,211.73 1133.74,212.41 1132.62,213.10 1131.47,213.79 1130.32,214.50 1129.14,215.22 1127.95,215.95 1126.74,216.68 1125.51,217.43 1124.26,218.19 1123.00,218.96 1121.72,219.74 1120.42,220.52 1119.11,221.32 1117.78,222.13 1116.43,222.94 1115.07,223.77 1113.69,224.61 1112.29,225.45 1110.88,226.31 1109.46,227.17 1108.01,228.04 1106.55,228.92 1105.08,229.82 1103.59,230.72 1102.08,231.63 1100.56,232.54 1099.02,233.47 1097.47,234.41 1095.90,235.35 1094.32,236.31 1092.73,237.27 1091.12,238.24 1089.49,239.22 1087.85,240.21 1086.20,241.20 1084.53,242.21 1082.85,243.22 1081.15,244.24 1079.44,245.27 1077.71,246.31 1075.98,247.36 1074.23,248.41 1072.46,249.47 1070.68,250.54 1068.89,251.62 1067.09,252.71 1065.27,253.80 1063.44,254.90 1061.60,256.01 1059.74,257.12 1057.87,258.25 1055.99,259.38 1054.10,260.51 1052.19,261.66 1050.28,262.81 1048.35,263.97 1046.40,265.14 1044.45,266.31 1042.49,267.49 1040.51,268.68 1038.52,269.87 1036.52,271.08 1034.51,272.28 1032.49,273.50 1030.46,274.72 1028.42,275.95 1026.36,277.18 1024.30,278.42 1022.22,279.67 1020.14,280.92 1018.04,282.18 1015.94,283.45 1013.82,284.72 1011.69,286.00 1009.56,287.29 1007.41,288.58 1005.26,289.87 1003.09,291.17 1000.92,292.48 998.73,293.80 996.54,295.11 994.34,296.44 992.13,297.77 989.91,299.11 987.68,300.45 985.44,301.79 983.20,303.15 980.94,304.50 978.68,305.87 976.41,307.23 974.13,308.61 971.84,309.98 969.55,311.37 967.24,312.75 964.93,314.15 962.62,315.54 960.29,316.94 957.96,318.35 955.62,319.76">
    <lane id="-0_0" index="0" disallow="pedestrian tram rail_urban rail rail_electric rail_fast ship" speed="22.22" length="222.20" width="3.75" shape="1154.15,210.82 1153.32,211.34 1152.47,211.87 1151.61,212.41 1150.72,212.96 1149.82,213.52 1148.89,214.09 1147.95,214.68 1146.99,215.27 1146.01,215.88 1145.01,216.49 1143.99,217.12 1142.96,217.75 1141.90,218.40 1140.83,219.06 1139.74,219.73 1138.63,220.40 1137.51,221.09 1136.36,221.79 1135.20,222.50 1134.02,223.22 1132.83,223.95 1131.61,224.69 1130.38,225.44 1129.13,226.20 1127.87,226.97 1126.59,227.75 1125.29,228.54 1123.97,229.33 1122.64,230.14 1121.29,230.96 1119.93,231.79 1118.55,232.62 1117.15,233.47 1115.74,234.33 1114.31,235.19 1112.86,236.06 1111.40,236.95 1109.93,237.84 1108.43,238.74 1106.93,239.65 1105.40,240.57 1103.87,241.50 1102.31,242.44 1100.75,243.38 1099.16,244.34 1097.57,245.30 1095.96,246.27 1094.33,247.25 1092.69,248.24 1091.03,249.24 1089.36,250.24 1087.68,251.25 1085.98,252.28 1084.27,253.31 1082.55,254.34 1080.81,255.39 1079.06,256.44 1077.29,257.51 1075.51,258.58 1073.72,259.65 1071.92,260.74 1070.10,261.83 1068.27,262.93 1066.43,264.04 1064.57,265.16 1062.70,266.28 1060.82,267.41 1058.93,268.55 1057.02,269.69 1055.10,270.85 1053.18,272.01 1051.23,273.17 1049.28,274.35 1047.32,275.53 1045.34,276.72 1043.35,277.91 1041.35,279.11 1039.34,280.32 1037.32,281.53 1035.29,282.76 1033.25,283.98 1031.19,285.22 1029.13,286.46 1027.05,287.71 1024.97,288.96 1022.87,290.22 1020.77,291.48 1018.65,292.76 1016.52,294.04 1014.39,295.32 1012.24,296.61 1010.09,297.91 1007.92,299.21 1005.75,300.52 1003.57,301.83 1001.37,303.15 999.17,304.47 996.96,305.80 994.74,307.14 992.51,308.48 990.28,309.83 988.03,311.18 985.78,312.53 983.51,313.90 981.24,315.26 978.97,316.64 976.68,318.01 974.39,319.40 972.08,320.78 969.77,322.18 967.46,323.57 965.13,324.97 963.89,325.72" type="driving"/>
    <lane id="-0_1" index="1" disallow="pedestrian tram rail_urban rail rail_electric rail_fast ship" speed="22.22" length="222.20" width="3.75" shape="1152.16,207.64 1151.34,208.16 1150.49,208.69 1149.63,209.22 1148.74,209.77 1147.84,210.33 1146.92,210.90 1145.98,211.49 1145.02,212.08 1144.04,212.68 1143.04,213.30 1142.03,213.92 1140.99,214.56 1139.94,215.20 1138.87,215.86 1137.78,216.53 1136.67,217.21 1135.55,217.89 1134.41,218.59 1133.25,219.30 1132.07,220.02 1130.87,220.75 1129.66,221.49 1128.43,222.24 1127.18,223.00 1125.92,223.76 1124.64,224.54 1123.34,225.33 1122.03,226.13 1120.70,226.94 1119.35,227.75 1117.98,228.58 1116.60,229.42 1115.21,230.26 1113.80,231.12 1112.37,231.98 1110.92,232.86 1109.46,233.74 1107.99,234.63 1106.50,235.53 1104.99,236.44 1103.47,237.36 1101.93,238.29 1100.38,239.22 1098.81,240.17 1097.23,241.12 1095.63,242.09 1094.02,243.06 1092.39,244.04 1090.75,245.03 1089.10,246.02 1087.43,247.03 1085.75,248.04 1084.05,249.06 1082.34,250.09 1080.62,251.13 1078.88,252.18 1077.13,253.23 1075.36,254.29 1073.58,255.36 1071.79,256.44 1069.99,257.53 1068.17,258.62 1066.34,259.72 1064.49,260.83 1062.64,261.94 1060.77,263.07 1058.89,264.20 1057.00,265.34 1055.09,266.48 1053.17,267.63 1051.24,268.79 1049.30,269.96 1047.35,271.13 1045.38,272.31 1043.41,273.50 1041.42,274.70 1039.42,275.90 1037.41,277.11 1035.39,278.32 1033.36,279.54 1031.32,280.77 1029.26,282.00 1027.20,283.24 1025.12,284.49 1023.04,285.75 1020.94,287.00 1018.83,288.27 1016.72,289.54 1014.59,290.82 1012.46,292.11 1010.31,293.40 1008.16,294.69 1005.99,295.99 1003.82,297.30 1001.63,298.62 999.44,299.93 997.24,301.26 995.03,302.59 992.81,303.93 990.58,305.27 988.34,306.61 986.10,307.96 983.84,309.32 981.58,310.68 979.31,312.05 977.03,313.42 974.74,314.80 972.45,316.18 970.15,317.57 967.84,318.96 965.52,320.36 963.20,321.76 961.95,322.51" type="driving"/>
    <lane id="-0_2" index="2" disallow="pedestrian tram rail_urban rail rail_electric rail_fast ship" speed="22.22" length="222.20" width="3.75" shape="1150.17,204.46 1149.35,204.98 1148.51,205.50 1147.65,206.04 1146.77,206.59 1145.86,207.15 1144.94,207.72 1144.01,208.30 1143.05,208.89 1142.07,209.49 1141.08,210.10 1140.06,210.73 1139.03,211.36 1137.98,212.01 1136.91,212.66 1135.82,213.33 1134.72,214.01 1133.59,214.70 1132.45,215.39 1131.29,216.10 1130.12,216.82 1128.92,217.55 1127.71,218.29 1126.48,219.03 1125.24,219.79 1123.97,220.56 1122.69,221.34 1121.40,222.13 1120.08,222.92 1118.75,223.73 1117.40,224.55 1116.04,225.37 1114.66,226.21 1113.27,227.05 1111.85,227.91 1110.43,228.77 1108.98,229.65 1107.52,230.53 1106.05,231.42 1104.56,232.32 1103.05,233.23 1101.53,234.15 1099.99,235.08 1098.44,236.01 1096.87,236.96 1095.29,237.91 1093.70,238.88 1092.08,239.85 1090.46,240.83 1088.82,241.81 1087.16,242.81 1085.50,243.82 1083.81,244.83 1082.12,245.85 1080.41,246.88 1078.68,247.92 1076.94,248.96 1075.19,250.02 1073.43,251.08 1071.65,252.15 1069.86,253.23 1068.05,254.31 1066.24,255.41 1064.41,256.51 1062.56,257.61 1060.71,258.73 1058.84,259.85 1056.96,260.98 1055.06,262.12 1053.16,263.27 1051.24,264.42 1049.31,265.58 1047.37,266.75 1045.42,267.92 1043.45,269.10 1041.48,270.29 1039.49,271.48 1037.49,272.68 1035.48,273.89 1033.46,275.11 1031.43,276.33 1029.38,277.56 1027.33,278.79 1025.26,280.03 1023.19,281.28 1021.10,282.53 1019.01,283.79 1016.90,285.06 1014.79,286.33 1012.66,287.61 1010.52,288.89 1008.38,290.18 1006.22,291.48 1004.06,292.78 1001.88,294.09 999.70,295.40 997.51,296.72 995.30,298.05 993.09,299.38 990.87,300.71 988.65,302.05 986.41,303.40 984.16,304.75 981.91,306.11 979.65,307.47 977.37,308.84 975.10,310.21 972.81,311.59 970.51,312.97 968.21,314.36 965.90,315.75 963.58,317.15 961.26,318.55 960.02,319.30" type="driving"/>
  </edge>
  <edge id="-1" from="0" to="2.1" priority="1" type="driving" shape="955.62,319.76 953.91,320.79 952.20,321.82 950.49,322.86 948.77,323.89 947.05,324.93 945.32,325.98 943.59,327.02 941.86,328.06 940.12,329.11 938.39,330.16 936.64,331.22 934.90,332.27 933.15,333.33 931.40,334.38 929.64,335.45 927.88,336.51 926.12,337.57 924.36,338.64 922.59,339.71 920.82,340.78 919.05,341.85 917.27,342.93 915.49,344.00 913.71,345.08 911.93,346.16 910.14,347.25 908.35,348.33 906.56,349.41 904.76,350.50 902.96,351.59 901.16,352.68 899.36,353.77 897.56,354.87 895.75,355.96 893.94,357.06 892.13,358.16 890.32,359.26 888.50,360.36 886.68,361.47 884.86,362.57 883.04,363.68 881.22,364.79 879.39,365.90 877.56,367.01 875.73,368.12 873.90,369.23 872.07,370.35 870.23,371.47 868.39,372.58 866.55,373.70 864.71,374.82 862.87,375.94 861.03,377.07 859.18,378.19 857.34,379.32 855.49,380.44 853.64,381.57 851.79,382.70 849.94,383.83 848.08,384.96 846.23,386.09 844.38,387.22 842.52,388.35 840.66,389.49 838.80,390.62 836.94,391.76 835.08,392.90 833.22,394.03 831.36,395.17 829.50,396.31 827.63,397.45 825.77,398.59 823.90,399.73 822.04,400.88 820.17,402.02 818.31,403.16 816.44,404.31 814.57,405.45 812.70,406.60 810.83,407.75 808.96,408.89 807.10,410.04 805.23,411.19 803.36,412.34 801.49,413.48 799.62,414.63 797.75,415.78 795.88,416.93 794.01,418.08 792.14,419.23 790.27,420.39 788.40,421.54 786.53,422.69 784.66,423.84 782.79,424.99 780.92,426.15 779.05,427.30 777.18,428.45 775.32,429.60 773.45,430.76 771.58,431.91 769.72,433.06 767.85,434.22 765.99,435.37 764.12,436.52 762.26,437.67 760.40,438.83 758.54,439.98 756.67,441.13 754.81,442.29 752.96,443.44 751.10,444.59 749.24,445.74 747.38,446.90 745.53,448.05 743.68,449.20 741.82,450.35 739.97,451.50 738.12,452.65 736.28,453.80 734.43,454.95 732.58,456.10 730.74,457.25 728.90,458.40 727.05,459.55 725.22,460.70 723.38,461.84 721.54,462.99 719.71,464.14 717.87,465.28 716.04,466.43 714.21,467.57 712.39,468.72 710.56,469.86 708.74,471.00 706.92,472.14 705.10,473.28 703.28,474.42 701.47,475.56 699.65,476.70 697.84,477.84 696.04,478.98 694.23,480.11 692.43,481.25 690.63,482.38 688.83,483.51 687.03,484.65 685.24,485.78 683.45,486.91 681.66,488.04 679.87,489.17 678.09,490.29 676.31,491.42 674.53,492.54 672.76,493.67 670.99,494.79 669.22,495.91 667.45,497.03 665.69,498.15 663.93,499.27 662.17,500.38 660.42,501.50 658.67,502.61 656.92,503.72 655.18,504.83 653.44,505.94 651.70,507.05 649.97,508.16 648.24,509.26 646.51,510.37 644.79,511.47 643.07,512.57 641.35,513.67 639.64,514.77 637.93,515.86 636.23,516.96 634.52,518.05 632.83,519.14 631.13,520.23 629.44,521.32 627.76,522.40 626.08,523.48 624.40,524.57 622.73,525.65 621.06,526.72 619.39,527.80 617.73,528.88 616.07,529.95 614.42,531.02 612.77,532.09 611.13,533.15 609.49,534.22 607.85,535.28 606.22,536.34 604.60,537.40 602.98,538.46 601.36,539.51 599.75,540.56 598.14,541.61 596.54,542.66 594.94,543.71 593.35,544.75 591.76,545.79 590.18,546.83 588.60,547.87 587.03,548.90 585.46,549.93 583.90,550.96 582.34,551.99 580.79,553.01 579.24,554.04 577.70,555.06 576.16,556.07 574.63,557.09 573.10,558.10 571.58,559.11 570.07,560.12 568.56,561.12 567.06,562.12 565.56,563.12 564.07,564.12 562.58,565.11 561.10,566.10 559.62,567.09 558.15,568.08 556.69,569.06 555.23,570.04 553.78,571.02 552.34,571.99 550.90,572.96 549.46,573.93 548.04,574.89 546.61,575.86 545.20,576.82 543.79,577.77 542.39,578.73 540.99,579.68 539.60,580.62 538.22,581.57 536.84,582.51 535.47,583.45 534.11,584.38 532.75,585.31 531.40,586.24 530.06,587.17 528.72,588.09 527.39,589.01 526.07,589.92 524.75,590.83 523.44,591.74 522.14,592.65 520.85,593.55 519.56,594.45 518.28,595.34 517.00,596.24 515.74,597.12 514.48,598.01 513.22,598.89 511.98,599.77 510.74,600.64 509.51,601.51 508.29,602.38 507.07,603.24 505.86,604.10 504.66,604.96 503.47,605.81 502.28,606.66 501.11,607.50 499.94,608.34 498.77,609.18 497.62,610.01 496.47,610.84 495.33,611.67 494.20,612.49">