<?xml version='1.0' encoding='UTF-8'?>
<!-- generated on 2022-09-25 13:30:18 by Eclipse SUMO netconvert Version 1.13.0
<configuration xmlns:xsi="http://www.w3.org/2001/XMLSchema-instance" xsi:noNamespaceSchemaLocation="http://sumo.dlr.de/xsd/netconvertConfiguration.xsd">

    <input>
        <opendrive-files value="map_new_new\14\50\50.xodr"/>
    </input>

    <output>
        <output-file value="C:\Users\LinGe\AppData\Local\Temp\tmp9bd814mj\50.net.xml"/>
    </output>

    <processing>
        <geometry.max-grade.fix value="false"/>
    </processing>

    <tls_building>
        <tls.left-green.time value="0"/>
    </tls_building>

    <junctions>
        <rectangular-lane-cut value="true"/>
    </junctions>

    <report>
        <aggregate-warnings value="5"/>
    </report>

</configuration>
-->
<net xmlns:xsi="http://www.w3.org/2001/XMLSchema-instance" version="1.9" junctionCornerDetail="5" rectangularLaneCut="true" limitTurnSpeed="5.50" xsi:noNamespaceSchemaLocation="http://sumo.dlr.de/xsd/net_file.xsd">
  <location netOffset="1.56,101.26" convBoundary="0.00,0.00,1139.60,1302.51" origBoundary="-1.56,-101.26,1138.04,1201.26" projParameter="!"/>
  <type id="bidirectional" priority="1" speed="1.39" disallow="pedestrian tram rail_urban rail rail_electric rail_fast ship" width="3.65"/>
  <type id="border" priority="0" speed="1.39" disallow="all" discard="1" width="0.10"/>
  <type id="driving" priority="1" speed="13.89" disallow="pedestrian tram rail_urban rail rail_electric rail_fast ship" width="3.65"/>
  <type id="entry" priority="1" speed="22.22" disallow="pedestrian tram rail_urban rail rail_electric rail_fast ship" width="3.65"/>
  <type id="exit" priority="1" speed="22.22" disallow="pedestrian tram rail_urban rail rail_electric rail_fast ship" width="3.65"/>
  <type id="median" priority="0" speed="1.39" disallow="all" discard="1" width="0.10"/>
  <type id="mwyEntry" priority="1" speed="22.22" allow="private emergency authority army vip passenger hov taxi bus coach delivery truck trailer motorcycle evehicle custom1 custom2" width="3.65"/>
  <type id="mwyExit" priority="1" speed="22.22" allow="private emergency authority army vip passenger hov taxi bus coach delivery truck trailer motorcycle evehicle custom1 custom2" width="3.65"/>
  <type id="none" priority="0" speed="1.39" disallow="all" discard="1" width="1.00"/>
  <type id="offRamp" priority="1" speed="22.22" allow="private emergency authority army vip passenger hov taxi bus coach delivery truck trailer motorcycle evehicle custom1 custom2" width="3.65"/>
  <type id="onRamp" priority="1" speed="22.22" allow="private emergency authority army vip passenger hov taxi bus coach delivery truck trailer motorcycle evehicle custom1 custom2" width="3.65"/>
  <type id="parking" priority="1" speed="1.39" disallow="pedestrian tram rail_urban rail rail_electric rail_fast ship" width="2.50"/>
  <type id="rail" priority="3" speed="33.33" allow="rail_urban rail rail_electric rail_fast" width="3.65"/>
  <type id="restricted" priority="0" speed="13.89" disallow="all" width="3.65"/>
  <type id="roadWorks" priority="0" speed="1.39" allow="authority" width="3.65"/>
  <type id="shoulder" priority="0" speed="1.39" disallow="all" discard="1" width="1.00"/>
  <type id="special1" priority="1" speed="22.22" allow="custom1" discard="1" width="3.65"/>
  <type id="special2" priority="1" speed="22.22" allow="custom2" discard="1" width="3.65"/>
  <type id="special3" priority="1" speed="22.22" allow="custom1 custom2" discard="1" width="3.65"/>
  <type id="stop" priority="1" speed="13.89" disallow="pedestrian tram rail_urban rail rail_electric rail_fast ship" width="3.65"/>
  <type id="tram" priority="2" speed="13.89" allow="tram" width="3.65"/>
  <edge id=":0_0" function="internal">
    <lane id=":0_0_0" index="0" disallow="pedestrian tram rail_urban rail rail_electric rail_fast ship" speed="20.83" length="83.41" width="3.75" shape="422.74,650.60 408.76,662.95 389.04,681.09 370.84,698.13 361.44,707.16"/>
  </edge>
  <edge id=":0_1" function="internal">
    <lane id=":0_1_0" index="0" disallow="pedestrian tram rail_urban rail rail_electric rail_fast ship" speed="22.22" length="83.46" width="3.75" shape="422.74,650.60 358.70,704.02"/>
    <lane id=":0_1_1" index="1" disallow="pedestrian tram rail_urban rail rail_electric rail_fast ship" speed="22.22" length="83.46" width="3.75" shape="420.36,647.70 356.27,701.16"/>
    <lane id=":0_1_2" index="2" disallow="pedestrian tram rail_urban rail rail_electric rail_fast ship" speed="22.22" length="83.46" width="3.75" shape="417.98,644.81 353.85,698.30"/>
  </edge>
  <edge id=":1_0" function="internal">
    <lane id=":1_0_0" index="0" disallow="pedestrian tram rail_urban rail rail_electric rail_fast ship" speed="22.22" length="81.07" width="3.75" shape="153.71,851.84 167.05,839.32 185.68,821.19 202.82,804.23 211.70,795.19"/>
  </edge>
  <edge id=":1_1" function="internal">
    <lane id=":1_1_0" index="0" disallow="pedestrian tram rail_urban rail rail_electric rail_fast ship" speed="22.22" length="81.24" width="3.75" shape="153.71,851.84 214.72,798.16"/>
    <lane id=":1_1_1" index="1" disallow="pedestrian tram rail_urban rail rail_electric rail_fast ship" speed="22.22" length="81.24" width="3.75" shape="156.20,854.65 217.19,800.98"/>
    <lane id=":1_1_2" index="2" disallow="pedestrian tram rail_urban rail rail_electric rail_fast ship" speed="22.22" length="81.24" width="3.75" shape="158.68,857.46 219.66,803.80"/>
  </edge>
  <edge id=":14.13_0" function="internal">
    <lane id=":14.13_0_0" index="0" disallow="pedestrian tram rail_urban rail rail_electric rail_fast ship" speed="22.22" length="0.30" width="3.75" shape="510.99,560.36,20.00 510.80,560.13,20.00"/>
    <lane id=":14.13_0_1" index="1" disallow="pedestrian tram rail_urban rail rail_electric rail_fast ship" speed="22.22" length="0.30" width="3.75" shape="513.90,558.01,20.00 513.72,557.78,20.00"/>
    <lane id=":14.13_0_2" index="2" disallow="pedestrian tram rail_urban rail rail_electric rail_fast ship" speed="22.22" length="0.30" width="3.75" shape="516.82,555.65,20.00 516.63,555.42,20.00"/>
  </edge>
  <edge id=":17.16_0" function="internal">
    <lane id=":17.16_0_0" index="0" disallow="pedestrian tram rail_urban rail rail_electric rail_fast ship" speed="19.44" length="0.30" width="3.75" shape="402.06,1162.81,9.63 402.33,1162.92,9.64"/>
  </edge>
  <edge id=":19.18_0" function="internal">
    <lane id=":19.18_0_0" index="0" disallow="pedestrian tram rail_urban rail rail_electric rail_fast ship" speed="19.44" length="0.30" width="3.75" shape="1136.52,619.13,9.57 1136.49,618.84,9.56"/>
  </edge>
  <edge id=":2_0" function="internal">
    <lane id=":2_0_0" index="0" disallow="pedestrian tram rail_urban rail rail_electric rail_fast ship" speed="20.83" length="68.58" width="3.75" shape="666.80,731.24,20.00 676.77,744.18,19.97 690.43,761.05,19.93 703.09,776.31,19.89 710.07,784.44,19.87"/>
  </edge>
  <edge id=":2_1" function="internal">
    <lane id=":2_1_0" index="0" disallow="pedestrian tram rail_urban rail rail_electric rail_fast ship" speed="22.22" length="68.75" width="3.75" shape="666.80,731.24,20.00 706.79,787.19,20.00"/>
    <lane id=":2_1_1" index="1" disallow="pedestrian tram rail_urban rail rail_electric rail_fast ship" speed="22.22" length="68.75" width="3.75" shape="663.76,733.43,20.00 703.74,789.37,20.00"/>
    <lane id=":2_1_2" index="2" disallow="pedestrian tram rail_urban rail rail_electric rail_fast ship" speed="22.22" length="68.75" width="3.75" shape="660.71,735.62,20.00 700.68,791.54,20.00"/>
  </edge>
  <edge id=":2.1_0" function="internal">
    <lane id=":2.1_0_0" index="0" disallow="pedestrian tram rail_urban rail rail_electric rail_fast ship" speed="22.22" length="0.30" width="3.75" shape="538.45,560.07 538.21,560.24"/>
    <lane id=":2.1_0_1" index="1" disallow="pedestrian tram rail_urban rail rail_electric rail_fast ship" speed="22.22" length="0.30" width="3.75" shape="536.24,557.03 536.00,557.21"/>
    <lane id=":2.1_0_2" index="2" disallow="pedestrian tram rail_urban rail rail_electric rail_fast ship" speed="22.22" length="0.30" width="3.75" shape="534.04,554.00 533.79,554.18"/>
  </edge>
  <edge id=":21.20_0" function="internal">
    <lane id=":21.20_0_0" index="0" disallow="pedestrian tram rail_urban rail rail_electric rail_fast ship" speed="13.89" length="0.30" width="3.75" shape="501.32,292.43,11.15 501.61,292.47,11.14"/>
  </edge>
  <edge id=":23.22_0" function="internal">
    <lane id=":23.22_0_0" index="0" disallow="pedestrian tram rail_urban rail rail_electric rail_fast ship" speed="22.22" length="0.30" width="3.75" shape="296.77,519.46,10.70 296.79,519.16,10.71"/>
  </edge>
  <edge id=":3_0" function="internal">
    <lane id=":3_0_0" index="0" disallow="pedestrian tram rail_urban rail rail_electric rail_fast ship" speed="18.06" length="39.94" width="3.75" shape="141.83,129.39,20.00 150.49,137.47,19.97 159.64,145.00,19.94 167.61,151.03,19.91 172.71,154.65,19.89"/>
  </edge>
  <edge id=":3_1" function="internal">
    <lane id=":3_1_0" index="0" disallow="pedestrian tram rail_urban rail rail_electric rail_fast ship" speed="22.22" length="40.10" width="3.75" shape="141.83,129.39,20.00 169.81,158.13,20.00"/>
    <lane id=":3_1_1" index="1" disallow="pedestrian tram rail_urban rail rail_electric rail_fast ship" speed="22.22" length="40.10" width="3.75" shape="139.14,132.01,20.00 167.12,160.74,20.00"/>
    <lane id=":3_1_2" index="2" disallow="pedestrian tram rail_urban rail rail_electric rail_fast ship" speed="22.22" length="40.10" width="3.75" shape="136.46,134.62,20.00 164.43,163.35,20.00"/>
  </edge>
  <edge id=":4_0" function="internal">
    <lane id=":4_0_0" index="0" disallow="pedestrian tram rail_urban rail rail_electric rail_fast ship" speed="20.83" length="70.77" width="3.75" shape="686.13,804.84,19.85 680.52,795.32,19.88 669.77,777.77,19.92 657.82,758.76,19.97 648.59,744.87,20.00"/>
  </edge>
  <edge id=":4_1" function="internal">
    <lane id=":4_1_0" index="0" disallow="pedestrian tram rail_urban rail rail_electric rail_fast ship" speed="22.22" length="70.43" width="3.75" shape="689.53,802.16,20.00 648.59,744.87,20.00"/>
    <lane id=":4_1_1" index="1" disallow="pedestrian tram rail_urban rail rail_electric rail_fast ship" speed="22.22" length="70.43" width="3.75" shape="692.58,799.98,20.00 651.63,742.69,20.00"/>
    <lane id=":4_1_2" index="2" disallow="pedestrian tram rail_urban rail rail_electric rail_fast ship" speed="22.22" length="70.43" width="3.75" shape="695.64,797.81,20.00 654.68,740.50,20.00"/>
  </edge>
  <edge id=":5_0" function="internal">
    <lane id=":5_0_0" index="0" disallow="pedestrian tram rail_urban rail rail_electric rail_fast ship" speed="20.83" length="87.61" width="3.75" shape="713.67,449.45 701.64,455.98 678.61,468.83 654.07,482.81 637.49,492.70"/>
  </edge>
  <edge id=":5_1" function="internal">
    <lane id=":5_1_0" index="0" disallow="pedestrian tram rail_urban rail rail_electric rail_fast ship" speed="22.22" length="87.38" width="3.75" shape="711.26,446.00 637.49,492.70"/>
    <lane id=":5_1_1" index="1" disallow="pedestrian tram rail_urban rail rail_electric rail_fast ship" speed="22.22" length="87.38" width="3.75" shape="709.28,442.82 635.45,489.55"/>
    <lane id=":5_1_2" index="2" disallow="pedestrian tram rail_urban rail rail_electric rail_fast ship" speed="22.22" length="87.38" width="3.75" shape="707.30,439.63 633.41,486.41"/>
  </edge>
  <edge id=":6_0" function="internal">
    <lane id=":6_0_0" index="0" disallow="pedestrian tram rail_urban rail rail_electric rail_fast ship" speed="18.06" length="33.20" width="3.75" shape="966.08,261.89,0.06 971.10,260.50,0.05 978.42,258.13,0.04 987.26,254.59,0.02 996.86,249.69"/>
  </edge>
  <edge id=":6_1" function="internal">
    <lane id=":6_1_0" index="0" disallow="pedestrian tram rail_urban rail rail_electric rail_fast ship" speed="22.22" length="32.43" width="3.75" shape="968.82,265.99 996.86,249.69"/>
    <lane id=":6_1_1" index="1" disallow="pedestrian tram rail_urban rail rail_electric rail_fast ship" speed="22.22" length="32.43" width="3.75" shape="970.71,269.23 998.74,252.93"/>
    <lane id=":6_1_2" index="2" disallow="pedestrian tram rail_urban rail rail_electric rail_fast ship" speed="22.22" length="32.43" width="3.75" shape="972.60,272.48 1000.63,256.17"/>
  </edge>
  <edge id=":6.5_0" function="internal">
    <lane id=":6.5_0_0" index="0" disallow="pedestrian tram rail_urban rail rail_electric rail_fast ship" speed="22.22" length="0.30" width="3.75" shape="524.82,541.85 525.07,541.67"/>
    <lane id=":6.5_0_1" index="1" disallow="pedestrian tram rail_urban rail rail_electric rail_fast ship" speed="22.22" length="0.30" width="3.75" shape="527.03,544.88 527.27,544.70"/>
    <lane id=":6.5_0_2" index="2" disallow="pedestrian tram rail_urban rail rail_electric rail_fast ship" speed="22.22" length="0.30" width="3.75" shape="529.24,547.91 529.48,547.73"/>
  </edge>
  <edge id=":7_0" function="internal">
    <lane id=":7_0_0" index="0" disallow="pedestrian tram rail_urban rail rail_electric rail_fast ship" speed="22.22" length="50.41" width="3.75" shape="226.79,256.19,20.00 222.15,249.82,20.00 213.86,239.05,20.00 204.14,227.04,20.00 195.19,216.95,20.00"/>
  </edge>
  <edge id=":7_1" function="internal">
    <lane id=":7_1_0" index="0" disallow="pedestrian tram rail_urban rail rail_electric rail_fast ship" speed="22.22" length="49.93" width="3.75" shape="229.86,252.87,20.00 195.19,216.95,20.00"/>
    <lane id=":7_1_1" index="1" disallow="pedestrian tram rail_urban rail rail_electric rail_fast ship" speed="22.22" length="49.93" width="3.75" shape="232.57,250.27,20.00 197.89,214.34,20.00"/>
    <lane id=":7_1_2" index="2" disallow="pedestrian tram rail_urban rail rail_electric rail_fast ship" speed="22.22" length="49.93" width="3.75" shape="235.27,247.67,20.00 200.58,211.73,20.00"/>
  </edge>
  <edge id=":9.10_0" function="internal">
    <lane id=":9.10_0_0" index="0" disallow="pedestrian tram rail_urban rail rail_electric rail_fast ship" speed="22.22" length="0.30" width="3.75" shape="528.50,545.84,20.00 528.69,546.07,20.00"/>
    <lane id=":9.10_0_1" index="1" disallow="pedestrian tram rail_urban rail rail_electric rail_fast ship" speed="22.22" length="0.30" width="3.75" shape="525.58,548.19,20.00 525.77,548.43,20.00"/>
    <lane id=":9.10_0_2" index="2" disallow="pedestrian tram rail_urban rail rail_electric rail_fast ship" speed="22.22" length="0.30" width="3.75" shape="522.66,550.55,20.00 522.85,550.78,20.00"/>
  </edge>
  <edge id="-0" from="0.begin" to="5" priority="1" type="driving" shape="1102.73,202.87 1101.96,203.35 1101.18,203.83 1100.38,204.31 1099.57,204.81 1098.75,205.30 1097.92,205.81 1097.07,206.32 1096.21,206.84 1095.34,207.37 1094.46,207.90 1093.56,208.44 1092.66,208.99 1091.74,209.54 1090.81,210.10 1089.86,210.66 1088.91,211.24 1087.94,211.81 1086.96,212.40 1085.98,212.99 1084.97,213.58 1083.96,214.19 1082.94,214.80 1081.90,215.41 1080.86,216.03 1079.80,216.66 1078.73,217.30 1077.65,217.93 1076.56,218.58 1075.46,219.23 1074.34,219.89 1073.22,220.55 1072.08,221.22 1070.94,221.90 1069.78,222.58 1068.62,223.27 1067.44,223.96 1066.25,224.66 1065.05,225.36 1063.85,226.07 1062.63,226.79 1061.40,227.51 1060.16,228.24 1058.91,228.97 1057.65,229.71 1056.38,230.45 1055.10,231.20 1053.82,231.95 1052.52,232.71 1051.21,233.48 1049.89,234.25 1048.56,235.02 1047.23,235.80 1045.88,236.59 1044.53,237.38 1043.16,238.18 1041.79,238.98 1040.41,239.79 1039.01,240.60 1037.61,241.42 1036.20,242.24 1034.78,243.07 1033.35,243.90 1031.92,244.74 1030.47,245.58 1029.02,246.43 1027.56,247.28 1026.08,248.13 1024.60,249.00 1023.12,249.86 1021.62,250.73 1020.12,251.61 1018.60,252.49 1017.08,253.37 1015.55,254.26 1014.02,255.16 1012.47,256.06 1010.92,256.96 1009.36,257.87 1007.79,258.78 1006.21,259.70 1004.63,260.62 1003.04,261.54 1001.44,262.47 999.83,263.41 998.22,264.35 996.60,265.29 994.97,266.24 993.33,267.19 991.69,268.14 990.04,269.10 988.38,270.07 986.72,271.03 985.05,272.00 983.37,272.98 981.69,273.96 980.00,274.94 978.30,275.93 976.59,276.92 974.88,277.92 973.17,278.92 971.44,279.92 969.71,280.93 967.98,281.94 966.24,282.95 964.49,283.97 962.74,284.99 960.98,286.01 959.21,287.04 957.44,288.08 955.66,289.11 953.88,290.15 952.09,291.19 950.29,292.24 948.49,293.29 946.69,294.34 944.88,295.40 943.06,296.46 941.24,297.52 939.41,298.59 937.58,299.66 935.75,300.73 933.90,301.80 932.06,302.88 930.21,303.96 928.35,305.05 926.49,306.14 924.62,307.23 922.75,308.32 920.88,309.42 919.00,310.52 917.11,311.62 915.22,312.73 913.33,313.83 911.43,314.95 909.53,316.06 907.63,317.18 905.72,318.30 903.81,319.42 901.89,320.54 899.97,321.67 898.04,322.80 896.11,323.93 894.18,325.07 892.25,326.20 890.31,327.34 888.36,328.49 886.42,329.63 884.47,330.78 882.52,331.93 880.56,333.08 878.60,334.23 876.64,335.39 874.67,336.55 872.70,337.71 870.73,338.87 868.76,340.03 866.78,341.20 864.80,342.37 862.82,343.54 860.84,344.71 858.85,345.89 856.86,347.07 854.87,348.25 852.87,349.43 850.88,350.61 848.88,351.79 846.88,352.98 844.87,354.17 842.87,355.36 840.86,356.55 838.85,357.74 836.84,358.94 834.83,360.13 832.81,361.33 830.80,362.53 828.78,363.73 826.76,364.93 824.74,366.14 822.72,367.34 820.70,368.55 818.67,369.76 816.65,370.97 814.62,372.18 812.59,373.39 810.57,374.60 808.54,375.82 806.51,377.03 804.48,378.25 802.44,379.47 800.41,380.69 798.38,381.91 796.35,383.13 794.31,384.35 792.28,385.57 790.24,386.80 788.21,388.02 786.17,389.25 784.14,390.47 782.10,391.70 780.07,392.93 778.03,394.16 776.00,395.39 773.96,396.62 771.93,397.85 769.89,399.08 767.86,400.31 765.82,401.55 763.79,402.78 761.76,404.01 759.73,405.25 757.69,406.48 755.66,407.72 753.63,408.95 751.61,410.19 749.58,411.43 747.55,412.66 745.52,413.90 743.50,415.14 741.48,416.37 739.45,417.61 737.43,418.85 735.41,420.09 733.40,421.33 731.38,422.56 729.36,423.80 727.35,425.04 725.34,426.28 723.33,427.51 721.32,428.75 719.31,429.99 717.31,431.23 715.31,432.46 713.31,433.70 711.31,434.94 709.31,436.18 707.32,437.41 705.33,438.65 703.34,439.88 701.36,441.12 699.37,442.35 697.39,443.59 695.41,444.82 693.44,446.05 691.46,447.29 689.49,448.52 687.53,449.75 685.56,450.98 683.60,452.21 681.64,453.44 679.69,454.67 677.74,455.90 675.79,457.12 673.85,458.35 671.90,459.58 669.97,460.80 668.03,462.02 666.10,463.25 664.17,464.47 662.25,465.69 660.33,466.91 658.42,468.13 656.51,469.34 654.60,470.56 652.69,471.78 650.80,472.99 648.90,474.20 647.01,475.41 645.12,476.63 643.24,477.83 641.36,479.04 639.49,480.25 637.62,481.45 635.76,482.66">
    <lane id="-0_0" index="0" disallow="pedestrian tram rail_urban rail rail_electric rail_fast ship" speed="22.22" length="460.91" width="3.75" shape="1107.63,210.87 1106.86,211.34 1106.07,211.83 1105.26,212.32 1104.45,212.81 1103.62,213.32 1102.78,213.83 1101.93,214.34 1101.06,214.87 1100.19,215.40 1099.30,215.93 1098.40,216.47 1097.49,217.02 1096.56,217.58 1095.63,218.14 1094.68,218.71 1093.72,219.28 1092.75,219.86 1091.77,220.45 1090.78,221.04 1089.77,221.64 1088.76,222.24 1087.73,222.86 1086.69,223.47 1085.64,224.10 1084.58,224.73 1083.51,225.36 1082.42,226.00 1081.33,226.65 1080.23,227.30 1079.11,227.96 1077.98,228.63 1076.85,229.30 1075.70,229.97 1074.54,230.66 1073.37,231.35 1072.19,232.04 1071.00,232.74 1069.80,233.44 1068.59,234.16 1067.37,234.87 1066.14,235.59 1064.90,236.32 1063.65,237.06 1062.39,237.79 1061.12,238.54 1059.84,239.29 1058.55,240.04 1057.25,240.80 1055.94,241.57 1054.62,242.34 1053.30,243.12 1051.96,243.90 1050.61,244.69 1049.25,245.48 1047.89,246.28 1046.51,247.08 1045.13,247.89 1043.74,248.70 1042.33,249.52 1040.92,250.34 1039.50,251.17 1038.08,252.00 1036.64,252.84 1035.19,253.68 1033.74,254.53 1032.27,255.38 1030.80,256.24 1029.32,257.10 1027.83,257.96 1026.34,258.84 1024.83,259.71 1023.32,260.59 1021.80,261.48 1020.27,262.37 1018.73,263.26 1017.18,264.16 1015.63,265.06 1014.07,265.97 1012.50,266.88 1010.92,267.80 1009.34,268.72 1007.75,269.65 1006.15,270.58 1004.54,271.51 1002.93,272.45 1001.31,273.39 999.68,274.34 998.04,275.29 996.40,276.25 994.75,277.21 993.10,278.17 991.43,279.14 989.76,280.11 988.08,281.08 986.40,282.06 984.71,283.05 983.01,284.03 981.31,285.03 979.60,286.02 977.88,287.02 976.16,288.02 974.43,289.03 972.70,290.04 970.95,291.05 969.21,292.07 967.45,293.09 965.69,294.12 963.93,295.14 962.16,296.18 960.38,297.21 958.60,298.25 956.81,299.29 955.02,300.34 953.22,301.39 951.41,302.44 949.60,303.50 947.79,304.55 945.97,305.62 944.14,306.68 942.31,307.75 940.47,308.82 938.63,309.90 936.79,310.98 934.94,312.06 933.08,313.14 931.22,314.23 929.35,315.32 927.48,316.41 925.61,317.51 923.73,318.61 921.85,319.71 919.96,320.82 918.07,321.92 916.17,323.03 914.27,324.15 912.37,325.26 910.46,326.38 908.55,327.50 906.63,328.63 904.71,329.75 902.79,330.88 900.86,332.02 898.93,333.15 897.00,334.29 895.06,335.43 893.12,336.57 891.17,337.71 889.22,338.86 887.27,340.01 885.32,341.16 883.36,342.31 881.40,343.47 879.43,344.62 877.47,345.78 875.50,346.94 873.52,348.11 871.55,349.27 869.57,350.44 867.59,351.61 865.61,352.79 863.62,353.96 861.63,355.14 859.64,356.31 857.65,357.49 855.65,358.68 853.66,359.86 851.66,361.04 849.66,362.23 847.65,363.42 845.65,364.61 843.64,365.80 841.63,367.00 839.62,368.19 837.61,369.39 835.59,370.59 833.58,371.79 831.56,372.99 829.54,374.19 827.52,375.39 825.50,376.60 823.48,377.81 821.46,379.02 819.43,380.23 817.41,381.44 815.38,382.65 813.35,383.86 811.32,385.08 809.30,386.29 807.27,387.51 805.24,388.73 803.20,389.94 801.17,391.16 799.14,392.39 797.11,393.61 795.08,394.83 793.04,396.05 791.01,397.28 788.98,398.50 786.94,399.73 784.91,400.96 782.88,402.18 780.85,403.41 778.81,404.64 776.78,405.87 774.75,407.10 772.72,408.33 770.69,409.56 768.65,410.79 766.62,412.03 764.59,413.26 762.57,414.49 760.54,415.73 758.51,416.96 756.48,418.20 754.46,419.43 752.43,420.67 750.41,421.90 748.39,423.14 746.37,424.37 744.35,425.61 742.33,426.84 740.31,428.08 738.30,429.32 736.28,430.55 734.27,431.79 732.26,433.02 730.25,434.26 728.25,435.50 726.24,436.73 724.24,437.97 722.24,439.20 720.24,440.44 718.24,441.67 716.25,442.91 714.25,444.14 712.26,445.38 711.26,446.00" type="driving"/>
    <lane id="-0_1" index="1" disallow="pedestrian tram rail_urban rail rail_electric rail_fast ship" speed="22.22" length="460.91" width="3.75" shape="1105.67,207.67 1104.90,208.14 1104.11,208.63 1103.31,209.11 1102.50,209.61 1101.67,210.11 1100.83,210.62 1099.99,211.14 1099.12,211.66 1098.25,212.19 1097.36,212.72 1096.47,213.26 1095.56,213.81 1094.63,214.36 1093.70,214.92 1092.75,215.49 1091.80,216.06 1090.83,216.64 1089.85,217.23 1088.86,217.82 1087.85,218.42 1086.84,219.02 1085.81,219.63 1084.77,220.25 1083.73,220.87 1082.67,221.50 1081.60,222.13 1080.51,222.78 1079.42,223.42 1078.32,224.07 1077.20,224.73 1076.08,225.40 1074.94,226.07 1073.79,226.74 1072.64,227.43 1071.47,228.11 1070.29,228.81 1069.10,229.51 1067.90,230.21 1066.69,230.92 1065.47,231.64 1064.24,232.36 1063.01,233.09 1061.76,233.82 1060.50,234.56 1059.23,235.30 1057.95,236.05 1056.66,236.81 1055.36,237.57 1054.05,238.33 1052.73,239.10 1051.40,239.88 1050.07,240.66 1048.72,241.45 1047.36,242.24 1046.00,243.04 1044.62,243.84 1043.24,244.65 1041.85,245.46 1040.45,246.28 1039.03,247.10 1037.62,247.93 1036.19,248.76 1034.75,249.60 1033.30,250.44 1031.85,251.29 1030.39,252.14 1028.91,253.00 1027.43,253.86 1025.95,254.72 1024.45,255.59 1022.94,256.47 1021.43,257.35 1019.91,258.24 1018.38,259.13 1016.84,260.02 1015.30,260.92 1013.75,261.82 1012.18,262.73 1010.62,263.64 1009.04,264.56 1007.46,265.48 1005.86,266.41 1004.26,267.34 1002.66,268.27 1001.04,269.21 999.42,270.15 997.79,271.10 996.16,272.05 994.52,273.01 992.87,273.96 991.21,274.93 989.55,275.90 987.88,276.87 986.20,277.84 984.52,278.82 982.82,279.81 981.13,280.79 979.42,281.78 977.71,282.78 976.00,283.78 974.27,284.78 972.54,285.79 970.81,286.80 969.07,287.81 967.32,288.83 965.57,289.85 963.81,290.88 962.04,291.90 960.27,292.94 958.49,293.97 956.71,295.01 954.92,296.05 953.13,297.10 951.33,298.15 949.52,299.20 947.71,300.26 945.90,301.32 944.08,302.38 942.25,303.44 940.42,304.51 938.58,305.59 936.74,306.66 934.89,307.74 933.04,308.82 931.19,309.90 929.33,310.99 927.46,312.08 925.59,313.18 923.72,314.27 921.84,315.37 919.95,316.48 918.07,317.58 916.17,318.69 914.28,319.80 912.38,320.91 910.47,322.03 908.56,323.15 906.65,324.27 904.74,325.39 902.81,326.52 900.89,327.65 898.96,328.78 897.03,329.92 895.10,331.05 893.16,332.19 891.22,333.33 889.27,334.48 887.32,335.63 885.37,336.77 883.41,337.93 881.46,339.08 879.49,340.23 877.53,341.39 875.56,342.55 873.59,343.71 871.62,344.88 869.64,346.05 867.66,347.21 865.68,348.38 863.70,349.56 861.71,350.73 859.72,351.91 857.73,353.09 855.74,354.27 853.74,355.45 851.74,356.63 849.74,357.82 847.74,359.01 845.74,360.19 843.73,361.39 841.72,362.58 839.71,363.77 837.70,364.97 835.69,366.17 833.68,367.36 831.66,368.56 829.64,369.77 827.62,370.97 825.60,372.17 823.58,373.38 821.56,374.59 819.53,375.80 817.51,377.01 815.48,378.22 813.45,379.43 811.43,380.64 809.40,381.86 807.37,383.07 805.34,384.29 803.31,385.51 801.27,386.73 799.24,387.95 797.21,389.17 795.18,390.39 793.14,391.62 791.11,392.84 789.08,394.07 787.04,395.29 785.01,396.52 782.97,397.75 780.94,398.97 778.91,400.20 776.87,401.43 774.84,402.66 772.81,403.89 770.77,405.12 768.74,406.36 766.71,407.59 764.68,408.82 762.65,410.06 760.62,411.29 758.59,412.52 756.56,413.76 754.53,414.99 752.51,416.23 750.48,417.46 748.46,418.70 746.43,419.94 744.41,421.17 742.39,422.41 740.37,423.65 738.35,424.88 736.34,426.12 734.32,427.36 732.31,428.59 730.30,429.83 728.29,431.07 726.28,432.30 724.27,433.54 722.27,434.78 720.27,436.01 718.27,437.25 716.27,438.49 714.27,439.72 712.28,440.96 710.29,442.19 709.28,442.82" type="driving"/>
    <lane id="-0_2" index="2" disallow="pedestrian tram rail_urban rail rail_electric rail_fast ship" speed="22.22" length="460.91" width="3.75" shape="1103.71,204.47 1102.94,204.95 1102.16,205.43 1101.36,205.91 1100.55,206.41 1099.72,206.91 1098.89,207.41 1098.04,207.93 1097.18,208.45 1096.31,208.98 1095.43,209.51 1094.53,210.05 1093.62,210.59 1092.70,211.15 1091.77,211.71 1090.83,212.27 1089.87,212.84 1088.90,213.42 1087.93,214.01 1086.94,214.60 1085.93,215.20 1084.92,215.80 1083.90,216.41 1082.86,217.02 1081.81,217.65 1080.75,218.27 1079.68,218.91 1078.60,219.55 1077.51,220.19 1076.41,220.85 1075.30,221.50 1074.17,222.17 1073.04,222.84 1071.89,223.51 1070.73,224.20 1069.57,224.88 1068.39,225.58 1067.20,226.27 1066.00,226.98 1064.79,227.69 1063.58,228.40 1062.35,229.13 1061.11,229.85 1059.86,230.59 1058.60,231.32 1057.33,232.07 1056.05,232.82 1054.76,233.57 1053.46,234.33 1052.16,235.10 1050.84,235.87 1049.51,236.64 1048.17,237.42 1046.83,238.21 1045.47,239.00 1044.11,239.80 1042.73,240.60 1041.35,241.41 1039.96,242.22 1038.56,243.04 1037.15,243.86 1035.73,244.69 1034.30,245.52 1032.86,246.36 1031.42,247.20 1029.96,248.05 1028.50,248.90 1027.03,249.75 1025.55,250.62 1024.06,251.48 1022.56,252.35 1021.06,253.23 1019.55,254.11 1018.02,254.99 1016.50,255.88 1014.96,256.78 1013.41,257.68 1011.86,258.58 1010.30,259.49 1008.73,260.40 1007.15,261.32 1005.57,262.24 1003.98,263.16 1002.38,264.09 1000.77,265.03 999.16,265.97 997.54,266.91 995.91,267.86 994.27,268.81 992.63,269.76 990.98,270.72 989.33,271.69 987.66,272.65 985.99,273.63 984.31,274.60 982.63,275.58 980.94,276.56 979.24,277.55 977.54,278.54 975.83,279.54 974.11,280.54 972.39,281.54 970.66,282.55 968.92,283.56 967.18,284.57 965.43,285.59 963.68,286.61 961.92,287.64 960.15,288.66 958.38,289.70 956.60,290.73 954.82,291.77 953.03,292.81 951.24,293.86 949.44,294.91 947.63,295.96 945.82,297.02 944.01,298.08 942.19,299.14 940.36,300.21 938.53,301.27 936.69,302.35 934.85,303.42 933.00,304.50 931.15,305.58 929.30,306.67 927.43,307.76 925.57,308.85 923.70,309.94 921.82,311.04 919.94,312.14 918.06,313.24 916.17,314.34 914.28,315.45 912.38,316.56 910.48,317.68 908.58,318.79 906.67,319.91 904.75,321.03 902.84,322.16 900.92,323.29 898.99,324.42 897.06,325.55 895.13,326.68 893.20,327.82 891.26,328.96 889.31,330.10 887.37,331.25 885.42,332.39 883.47,333.54 881.51,334.69 879.55,335.85 877.59,337.00 875.62,338.16 873.66,339.32 871.69,340.48 869.71,341.65 867.74,342.82 865.76,343.99 863.77,345.16 861.79,346.33 859.80,347.50 857.81,348.68 855.82,349.86 853.83,351.04 851.83,352.22 849.83,353.41 847.83,354.59 845.83,355.78 843.82,356.97 841.82,358.16 839.81,359.35 837.80,360.55 835.79,361.74 833.77,362.94 831.76,364.14 829.74,365.34 827.72,366.54 825.70,367.75 823.68,368.95 821.66,370.16 819.63,371.37 817.61,372.58 815.58,373.79 813.56,375.00 811.53,376.21 809.50,377.43 807.47,378.64 805.44,379.86 803.41,381.08 801.38,382.29 799.34,383.51 797.31,384.74 795.28,385.96 793.24,387.18 791.21,388.40 789.18,389.63 787.14,390.85 785.11,392.08 783.07,393.31 781.04,394.53 779.00,395.76 776.97,396.99 774.93,398.22 772.90,399.45 770.86,400.69 768.83,401.92 766.80,403.15 764.76,404.38 762.73,405.62 760.70,406.85 758.67,408.09 756.64,409.32 754.61,410.56 752.58,411.79 750.55,413.03 748.53,414.26 746.50,415.50 744.48,416.74 742.45,417.97 740.43,419.21 738.41,420.45 736.39,421.69 734.38,422.92 732.36,424.16 730.35,425.40 728.33,426.64 726.32,427.87 724.31,429.11 722.31,430.35 720.30,431.59 718.30,432.82 716.29,434.06 714.30,435.30 712.30,436.53 710.30,437.77 708.31,439.00 707.30,439.63" type="driving"/>
  </edge>