<?xml version='1.0' encoding='UTF-8'?>
<!-- generated on 2022-09-02 19:57:39 by Eclipse SUMO netconvert Version 1.13.0
<configuration xmlns:xsi="http://www.w3.org/2001/XMLSchema-instance" xsi:noNamespaceSchemaLocation="http://sumo.dlr.de/xsd/netconvertConfiguration.xsd">

    <input>
        <opendrive-files value="map\classification\21\36761113\36761113.xodr"/>
    </input>

    <output>
        <output-file value="C:\Users\LinGe\AppData\Local\Temp\tmpxpv7nohw\36761113.net.xml"/>
    </output>

    <processing>
        <geometry.max-grade.fix value="false"/>
    </processing>

    <tls_building>
        <tls.left-green.time value="0"/>
    </tls_building>

    <junctions>
        <rectangular-lane-cut value="true"/>
    </junctions>

    <report>
        <aggregate-warnings value="5"/>
    </report>

</configuration>
-->
<net xmlns:xsi="http://www.w3.org/2001/XMLSchema-instance" version="1.9" junctionCornerDetail="5" rectangularLaneCut="true" limitTurnSpeed="5.50" xsi:noNamespaceSchemaLocation="http://sumo.dlr.de/xsd/net_file.xsd">
  <location netOffset="1.56,101.26" convBoundary="0.00,0.00,1102.73,1302.51" origBoundary="-1.56,-101.26,1101.18,1201.26" projParameter="!"/>
  <type id="bidirectional" priority="1" speed="1.39" disallow="pedestrian tram rail_urban rail rail_electric rail_fast ship" width="3.65"/>
  <type id="border" priority="0" speed="1.39" disallow="all" discard="1" width="0.10"/>
  <type id="driving" priority="1" speed="13.89" disallow="pedestrian tram rail_urban rail rail_electric rail_fast ship" width="3.65"/>
  <type id="entry" priority="1" speed="22.22" disallow="pedestrian tram rail_urban rail rail_electric rail_fast ship" width="3.65"/>
  <type id="exit" priority="1" speed="22.22" disallow="pedestrian tram rail_urban rail rail_electric rail_fast ship" width="3.65"/>
  <type id="median" priority="0" speed="1.39" disallow="all" discard="1" width="0.10"/>
  <type id="mwyEntry" priority="1" speed="22.22" allow="private emergency authority army vip passenger hov taxi bus coach delivery truck trailer motorcycle evehicle custom1 custom2" width="3.65"/>
  <type id="mwyExit" priority="1" speed="22.22" allow="private emergency authority army vip passenger hov taxi bus coach delivery truck trailer motorcycle evehicle custom1 custom2" width="3.65"/>
  <type id="none" priority="0" speed="1.39" disallow="all" discard="1" width="1.00"/>
  <type id="offRamp" priority="1" speed="22.22" allow="private emergency authority army vip passenger hov taxi bus coach delivery truck trailer motorcycle evehicle custom1 custom2" width="3.65"/>
  <type id="onRamp" priority="1" speed="22.22" allow="private emergency authority army vip passenger hov taxi bus coach delivery truck trailer motorcycle evehicle custom1 custom2" width="3.65"/>
  <type id="parking" priority="1" speed="1.39" disallow="pedestrian tram rail_urban rail rail_electric rail_fast ship" width="2.50"/>
  <type id="rail" priority="3" speed="33.33" allow="rail_urban rail rail_electric rail_fast" width="3.65"/>
  <type id="restricted" priority="0" speed="13.89" disallow="all" width="3.65"/>
  <type id="roadWorks" priority="0" speed="1.39" allow="authority" width="3.65"/>
  <type id="shoulder" priority="0" speed="1.39" disallow="all" discard="1" width="1.00"/>
  <type id="special1" priority="1" speed="22.22" allow="custom1" discard="1" width="3.65"/>
  <type id="special2" priority="1" speed="22.22" allow="custom2" discard="1" width="3.65"/>
  <type id="special3" priority="1" speed="22.22" allow="custom1 custom2" discard="1" width="3.65"/>
  <type id="stop" priority="1" speed="13.89" disallow="pedestrian tram rail_urban rail rail_electric rail_fast ship" width="3.65"/>
  <type id="tram" priority="2" speed="13.89" allow="tram" width="3.65"/>
  <edge id=":0_0" function="internal">
    <lane id=":0_0_0" index="0" disallow="pedestrian tram rail_urban rail rail_electric rail_fast ship" speed="20.83" length="86.79" width="3.75" shape="990.33,275.91 973.79,285.62 949.94,300.21 927.79,314.00 916.38,321.32"/>
  </edge>
  <edge id=":0_1" function="internal">
    <lane id=":0_1_0" index="0" disallow="pedestrian tram rail_urban rail rail_electric rail_fast ship" speed="22.22" length="86.91" width="3.75" shape="990.33,275.91 914.18,317.74"/>
    <lane id=":0_1_1" index="1" disallow="pedestrian tram rail_urban rail rail_electric rail_fast ship" speed="22.22" length="86.91" width="3.75" shape="988.53,272.61 912.37,314.46"/>
    <lane id=":0_1_2" index="2" disallow="pedestrian tram rail_urban rail rail_electric rail_fast ship" speed="22.22" length="86.91" width="3.75" shape="986.74,269.32 910.55,311.18"/>
  </edge>
  <edge id=":1_0" function="internal">
    <lane id=":1_0_0" index="0" disallow="pedestrian tram rail_urban rail rail_electric rail_fast ship" speed="15.28" length="29.85" width="3.75" shape="420.95,648.95 413.49,655.90 407.97,662.22 404.22,667.61 402.04,671.78"/>
  </edge>
  <edge id=":1_1" function="internal">
    <lane id=":1_1_0" index="0" disallow="pedestrian tram rail_urban rail rail_electric rail_fast ship" speed="22.22" length="30.38" width="3.75" shape="420.95,648.95 397.77,668.56"/>
    <lane id=":1_1_1" index="1" disallow="pedestrian tram rail_urban rail rail_electric rail_fast ship" speed="22.22" length="30.38" width="3.75" shape="418.54,646.09 395.34,665.70"/>
    <lane id=":1_1_2" index="2" disallow="pedestrian tram rail_urban rail rail_electric rail_fast ship" speed="22.22" length="30.38" width="3.75" shape="416.12,643.22 392.91,662.84"/>
  </edge>
  <edge id=":10_0" function="internal">
    <lane id=":10_0_0" index="0" disallow="pedestrian tram rail_urban rail rail_electric rail_fast ship" speed="22.22" length="104.49" width="3.75" shape="878.72,306.75 972.15,259.96"/>
  </edge>
  <edge id=":10_1" function="internal">
    <lane id=":10_1_0" index="0" disallow="pedestrian tram rail_urban rail rail_electric rail_fast ship" speed="22.22" length="104.25" width="3.75" shape="880.82,310.28 972.15,259.96"/>
    <lane id=":10_1_1" index="1" disallow="pedestrian tram rail_urban rail rail_electric rail_fast ship" speed="22.22" length="104.25" width="3.75" shape="882.64,313.56 973.95,263.25"/>
    <lane id=":10_1_2" index="2" disallow="pedestrian tram rail_urban rail rail_electric rail_fast ship" speed="22.22" length="104.25" width="3.75" shape="884.47,316.84 975.74,266.54"/>
  </edge>
  <edge id=":11_0" function="internal">
    <lane id=":11_0_0" index="0" disallow="pedestrian tram rail_urban rail rail_electric rail_fast ship" speed="20.83" length="35.83" width="3.75" shape="878.45,1091.76,19.91 881.19,1096.66,19.92 885.74,1103.94,19.94 891.78,1112.44,19.97 898.99,1121.01,20.00"/>
  </edge>
  <edge id=":11_1" function="internal">
    <lane id=":11_1_0" index="0" disallow="pedestrian tram rail_urban rail rail_electric rail_fast ship" speed="22.22" length="35.09" width="3.75" shape="875.05,1095.36,20.00 898.99,1121.01,20.00"/>
    <lane id=":11_1_1" index="1" disallow="pedestrian tram rail_urban rail rail_electric rail_fast ship" speed="22.22" length="35.09" width="3.75" shape="872.31,1097.92,20.00 896.25,1123.57,20.00"/>
    <lane id=":11_1_2" index="2" disallow="pedestrian tram rail_urban rail rail_electric rail_fast ship" speed="22.22" length="35.09" width="3.75" shape="869.57,1100.48,20.00 893.50,1126.13,20.00"/>
  </edge>
  <edge id=":12_0" function="internal">
    <lane id=":12_0_0" index="0" disallow="pedestrian tram rail_urban rail rail_electric rail_fast ship" speed="15.28" length="31.04" width="3.75" shape="500.36,728.98,20.00 499.09,724.30,20.00 496.23,717.98,20.00 491.65,710.47,20.00 485.22,702.22,20.00"/>
  </edge>
  <edge id=":12_1" function="internal">
    <lane id=":12_1_0" index="0" disallow="pedestrian tram rail_urban rail rail_electric rail_fast ship" speed="22.22" length="29.68" width="3.75" shape="504.80,724.56,20.00 485.22,702.22,20.00"/>
    <lane id=":12_1_1" index="1" disallow="pedestrian tram rail_urban rail rail_electric rail_fast ship" speed="22.22" length="29.68" width="3.75" shape="507.61,722.08,20.00 488.05,699.75,20.00"/>
    <lane id=":12_1_2" index="2" disallow="pedestrian tram rail_urban rail rail_electric rail_fast ship" speed="22.22" length="29.68" width="3.75" shape="510.42,719.60,20.00 490.88,697.29,20.00"/>
  </edge>
  <edge id=":13_0" function="internal">
    <lane id=":13_0_0" index="0" disallow="pedestrian tram rail_urban rail rail_electric rail_fast ship" speed="15.28" length="36.42" width="3.75" shape="375.56,650.64,0.00 380.74,648.26,0.00 388.44,644.02,0.00 397.41,638.30,0.00 406.41,631.48"/>
  </edge>
  <edge id=":13_1" function="internal">
    <lane id=":13_1_0" index="0" disallow="pedestrian tram rail_urban rail rail_electric rail_fast ship" speed="22.22" length="35.56" width="3.75" shape="379.25,654.46 406.41,631.48"/>
    <lane id=":13_1_1" index="1" disallow="pedestrian tram rail_urban rail rail_electric rail_fast ship" speed="22.22" length="35.56" width="3.75" shape="381.67,657.32 408.82,634.34"/>
    <lane id=":13_1_2" index="2" disallow="pedestrian tram rail_urban rail rail_electric rail_fast ship" speed="22.22" length="35.56" width="3.75" shape="384.10,660.17 411.24,637.21"/>
  </edge>
  <edge id=":13.12_0" function="internal">
    <lane id=":13.12_0_0" index="0" disallow="pedestrian tram rail_urban rail rail_electric rail_fast ship" speed="22.22" length="0.30" width="3.75" shape="443.06,617.16,20.00 443.25,617.39,20.00"/>
    <lane id=":13.12_0_1" index="1" disallow="pedestrian tram rail_urban rail rail_electric rail_fast ship" speed="22.22" length="0.30" width="3.75" shape="440.14,619.51,20.00 440.33,619.75,20.00"/>
    <lane id=":13.12_0_2" index="2" disallow="pedestrian tram rail_urban rail rail_electric rail_fast ship" speed="22.22" length="0.30" width="3.75" shape="437.22,621.87,20.00 437.42,622.11,20.00"/>
  </edge>
  <edge id=":14_0" function="internal">
    <lane id=":14_0_0" index="0" disallow="pedestrian tram rail_urban rail rail_electric rail_fast ship" speed="15.28" length="33.53" width="3.75" shape="557.91,545.41 552.90,546.93 545.76,550.07 537.34,554.77 528.45,560.99"/>
  </edge>
  <edge id=":14_1" function="internal">
    <lane id=":14_1_0" index="0" disallow="pedestrian tram rail_urban rail rail_electric rail_fast ship" speed="22.22" length="32.46" width="3.75" shape="554.06,541.13 528.45,560.99"/>
    <lane id=":14_1_1" index="1" disallow="pedestrian tram rail_urban rail rail_electric rail_fast ship" speed="22.22" length="32.46" width="3.75" shape="551.79,538.15 526.13,558.04"/>
    <lane id=":14_1_2" index="2" disallow="pedestrian tram rail_urban rail rail_electric rail_fast ship" speed="22.22" length="32.46" width="3.75" shape="549.51,535.17 523.82,555.10"/>
  </edge>
  <edge id=":15_0" function="internal">
    <lane id=":15_0_0" index="0" disallow="pedestrian tram rail_urban rail rail_electric rail_fast ship" speed="19.44" length="16.51" width="3.75" shape="810.75,728.75,12.07 811.63,745.24,12.11"/>
  </edge>
  <edge id=":15_1" function="internal">
    <lane id=":15_1_0" index="0" disallow="pedestrian tram rail_urban rail rail_electric rail_fast ship" speed="15.28" length="16.10" width="3.75" shape="806.57,730.11,12.06 808.46,733.55,12.07 810.00,737.38,12.08 811.10,741.36,12.10 811.63,745.24,12.11"/>
  </edge>
  <edge id=":19.18_0" function="internal">
    <lane id=":19.18_0_0" index="0" disallow="pedestrian tram rail_urban rail rail_electric rail_fast ship" speed="22.22" length="0.30" width="3.75" shape="425.55,631.69,20.00 425.36,631.45,20.00"/>
    <lane id=":19.18_0_1" index="1" disallow="pedestrian tram rail_urban rail rail_electric rail_fast ship" speed="22.22" length="0.30" width="3.75" shape="428.47,629.33,20.00 428.28,629.10,20.00"/>
    <lane id=":19.18_0_2" index="2" disallow="pedestrian tram rail_urban rail rail_electric rail_fast ship" speed="22.22" length="0.30" width="3.75" shape="431.38,626.97,20.00 431.20,626.74,20.00"/>
  </edge>
  <edge id=":2_0" function="internal">
    <lane id=":2_0_0" index="0" disallow="pedestrian tram rail_urban rail rail_electric rail_fast ship" speed="19.44" length="50.56" width="3.75" shape="124.79,876.98 134.50,867.59 145.19,856.35 154.35,846.25 159.50,840.25"/>
  </edge>
  <edge id=":2_1" function="internal">
    <lane id=":2_1_0" index="0" disallow="pedestrian tram rail_urban rail rail_electric rail_fast ship" speed="22.22" length="50.75" width="3.75" shape="124.79,876.98 162.73,843.27"/>
    <lane id=":2_1_1" index="1" disallow="pedestrian tram rail_urban rail rail_electric rail_fast ship" speed="22.22" length="50.75" width="3.75" shape="127.28,879.78 165.22,846.08"/>
    <lane id=":2_1_2" index="2" disallow="pedestrian tram rail_urban rail rail_electric rail_fast ship" speed="22.22" length="50.75" width="3.75" shape="129.77,882.58 167.70,848.88"/>
  </edge>
  <edge id=":2.1_0" function="internal">
    <lane id=":2.1_0_0" index="0" disallow="pedestrian tram rail_urban rail rail_electric rail_fast ship" speed="22.22" length="0.30" width="3.75" shape="581.36,520.75 581.12,520.93"/>
    <lane id=":2.1_0_1" index="1" disallow="pedestrian tram rail_urban rail rail_electric rail_fast ship" speed="22.22" length="0.30" width="3.75" shape="579.16,517.72 578.92,517.89"/>
    <lane id=":2.1_0_2" index="2" disallow="pedestrian tram rail_urban rail rail_electric rail_fast ship" speed="22.22" length="0.30" width="3.75" shape="576.96,514.68 576.71,514.86"/>
  </edge>
  <edge id=":23.22_0" function="internal">
    <lane id=":23.22_0_0" index="0" disallow="pedestrian tram rail_urban rail rail_electric rail_fast ship" speed="11.11" length="0.30" width="3.75" shape="414.98,875.49,6.95 414.70,875.40,6.94"/>
  </edge>
  <edge id=":26.25_0" function="internal">
    <lane id=":26.25_0_0" index="0" disallow="pedestrian tram rail_urban rail rail_electric rail_fast ship" speed="16.67" length="0.30" width="3.75" shape="276.12,539.40,12.76 276.17,539.11,12.78"/>
  </edge>
  <edge id=":28.27_0" function="internal">
    <lane id=":28.27_0_0" index="0" disallow="pedestrian tram rail_urban rail rail_electric rail_fast ship" speed="22.22" length="0.30" width="3.75" shape="607.07,354.23,7.93 607.37,354.28,7.92"/>
  </edge>
  <edge id=":3_0" function="internal">
    <lane id=":3_0_0" index="0" disallow="pedestrian tram rail_urban rail rail_electric rail_fast ship" speed="22.22" length="44.08" width="3.75" shape="87.47,108.76,20.00 94.86,118.84,19.98 103.28,129.10,19.95 110.80,137.68,19.93 115.52,142.70,19.91"/>
  </edge>
  <edge id=":3_1" function="internal">
    <lane id=":3_1_0" index="0" disallow="pedestrian tram rail_urban rail rail_electric rail_fast ship" speed="22.22" length="44.27" width="3.75" shape="87.47,108.76,20.00 112.04,145.58,20.00"/>
    <lane id=":3_1_1" index="1" disallow="pedestrian tram rail_urban rail rail_electric rail_fast ship" speed="22.22" length="44.27" width="3.75" shape="84.35,110.84,20.00 108.92,147.66,20.00"/>
    <lane id=":3_1_2" index="2" disallow="pedestrian tram rail_urban rail rail_electric rail_fast ship" speed="22.22" length="44.27" width="3.75" shape="81.23,112.92,20.00 105.80,149.74,20.00"/>
  </edge>
  <edge id=":30.29_0" function="internal">
    <lane id=":30.29_0_0" index="0" disallow="pedestrian tram rail_urban rail rail_electric rail_fast ship" speed="19.44" length="0.30" width="3.75" shape="811.23,618.45,8.92 811.20,618.75,8.93"/>
  </edge>
  <edge id=":33.32_0" function="internal">
    <lane id=":33.32_0_0" index="0" disallow="pedestrian tram rail_urban rail rail_electric rail_fast ship" speed="8.33" length="0.28" width="3.75" shape="447.58,742.07,10.75 447.81,742.22,10.79"/>
  </edge>
  <edge id=":35.34_0" function="internal">
    <lane id=":35.34_0_0" index="0" disallow="pedestrian tram rail_urban rail rail_electric rail_fast ship" speed="8.33" length="0.25" width="3.75" shape="326.96,613.12,10.00 326.95,613.36,9.96"/>
  </edge>
  <edge id=":37.36_0" function="internal">
    <lane id=":37.36_0_0" index="0" disallow="pedestrian tram rail_urban rail rail_electric rail_fast ship" speed="8.33" length="0.28" width="3.75" shape="583.57,596.79,8.42 583.68,596.53,8.38"/>
  </edge>
  <edge id=":39.38_0" function="internal">
    <lane id=":39.38_0_0" index="0" disallow="pedestrian tram rail_urban rail rail_electric rail_fast ship" speed="11.11" length="0.29" width="3.75" shape="509.44,609.12,9.79 509.74,609.15,9.80"/>
  </edge>
  <edge id=":4_0" function="internal">
    <lane id=":4_0_0" index="0" disallow="pedestrian tram rail_urban rail rail_electric rail_fast ship" speed="15.28" length="26.87" width="3.75" shape="478.91,660.10,20.00 485.17,666.70,20.00 490.88,671.47,20.00 495.86,674.62,20.00 499.95,676.36,20.00"/>
  </edge>
  <edge id=":4_1" function="internal">
    <lane id=":4_1_0" index="0" disallow="pedestrian tram rail_urban rail rail_electric rail_fast ship" speed="22.22" length="27.48" width="3.75" shape="478.91,660.10,20.00 496.83,680.90,20.00"/>
    <lane id=":4_1_1" index="1" disallow="pedestrian tram rail_urban rail rail_electric rail_fast ship" speed="22.22" length="27.48" width="3.75" shape="476.06,662.54,20.00 494.00,683.36,20.00"/>
    <lane id=":4_1_2" index="2" disallow="pedestrian tram rail_urban rail rail_electric rail_fast ship" speed="22.22" length="27.48" width="3.75" shape="473.21,664.98,20.00 491.17,685.82,20.00"/>
  </edge>
  <edge id=":5_0" function="internal">
    <lane id=":5_0_0" index="0" disallow="pedestrian tram rail_urban rail rail_electric rail_fast ship" speed="16.67" length="47.63" width="3.75" shape="950.59,1209.53,20.00 941.27,1200.39,19.97 930.46,1190.74,19.95 920.82,1182.56,19.92 915.05,1177.85,19.91"/>
  </edge>
  <edge id=":5_1" function="internal">
    <lane id=":5_1_0" index="0" disallow="pedestrian tram rail_urban rail rail_electric rail_fast ship" speed="22.22" length="47.74" width="3.75" shape="950.59,1209.53,20.00 917.98,1174.65,20.00"/>
    <lane id=":5_1_1" index="1" disallow="pedestrian tram rail_urban rail rail_electric rail_fast ship" speed="22.22" length="47.74" width="3.75" shape="953.33,1206.96,20.00 920.72,1172.09,20.00"/>
    <lane id=":5_1_2" index="2" disallow="pedestrian tram rail_urban rail rail_electric rail_fast ship" speed="22.22" length="47.74" width="3.75" shape="956.07,1204.40,20.00 923.46,1169.53,20.00"/>
  </edge>
  <edge id=":6_0" function="internal">
    <lane id=":6_0_0" index="0" disallow="pedestrian tram rail_urban rail rail_electric rail_fast ship" speed="15.28" length="33.23" width="3.75" shape="406.82,608.01,20.00 399.81,599.79,20.00 393.05,593.06,20.00 387.21,588.05,20.00 383.01,584.99,20.00"/>
  </edge>
  <edge id=":6_1" function="internal">
    <lane id=":6_1_0" index="0" disallow="pedestrian tram rail_urban rail rail_electric rail_fast ship" speed="22.22" length="33.67" width="3.75" shape="406.82,608.01,20.00 386.35,581.21,20.00"/>
    <lane id=":6_1_1" index="1" disallow="pedestrian tram rail_urban rail rail_electric rail_fast ship" speed="22.22" length="33.67" width="3.75" shape="409.78,605.71,20.00 389.34,578.95,20.00"/>
    <lane id=":6_1_2" index="2" disallow="pedestrian tram rail_urban rail rail_electric rail_fast ship" speed="22.22" length="33.67" width="3.75" shape="412.75,603.41,20.00 392.34,576.69,20.00"/>
  </edge>
  <edge id=":7_0" function="internal">
    <lane id=":7_0_0" index="0" disallow="pedestrian tram rail_urban rail rail_electric rail_fast ship" speed="16.67" length="50.09" width="3.75" shape="136.36,903.25,0.19 129.82,907.56,0.16 118.80,915.32,0.11 106.49,924.47,0.05 96.08,932.97"/>
  </edge>
  <edge id=":7_1" function="internal">
    <lane id=":7_1_0" index="0" disallow="pedestrian tram rail_urban rail rail_electric rail_fast ship" speed="22.22" length="49.58" width="3.75" shape="133.11,900.00 96.08,932.97"/>
    <lane id=":7_1_1" index="1" disallow="pedestrian tram rail_urban rail rail_electric rail_fast ship" speed="22.22" length="49.58" width="3.75" shape="130.62,897.20 93.59,930.17"/>
    <lane id=":7_1_2" index="2" disallow="pedestrian tram rail_urban rail rail_electric rail_fast ship" speed="22.22" length="49.58" width="3.75" shape="128.12,894.40 91.09,927.37"/>
  </edge>
  <edge id=":8_0" function="internal">
    <lane id=":8_0_0" index="0" disallow="pedestrian tram rail_urban rail rail_electric rail_fast ship" speed="19.44" length="72.24" width="3.75" shape="252.85,401.91,20.00 247.28,392.09,20.00 236.58,373.93,20.00 224.70,354.28,20.00 215.63,340.01,20.00"/>
  </edge>
  <edge id=":8_1" function="internal">
    <lane id=":8_1_0" index="0" disallow="pedestrian tram rail_urban rail rail_electric rail_fast ship" speed="22.22" length="71.87" width="3.75" shape="256.31,399.28,20.00 215.63,340.01,20.00"/>
    <lane id=":8_1_1" index="1" disallow="pedestrian tram rail_urban rail rail_electric rail_fast ship" speed="22.22" length="71.87" width="3.75" shape="259.40,397.14,20.00 218.73,337.89,20.00"/>
    <lane id=":8_1_2" index="2" disallow="pedestrian tram rail_urban rail rail_electric rail_fast ship" speed="22.22" length="71.87" width="3.75" shape="262.48,395.01,20.00 221.83,335.78,20.00"/>
  </edge>
  <edge id=":9_0" function="internal">
    <lane id=":9_0_0" index="0" disallow="pedestrian tram rail_urban rail rail_electric rail_fast ship" speed="16.67" length="17.82" width="3.75" shape="239.82,682.93,7.82 245.43,666.02,7.87"/>
  </edge>
  <edge id=":9_1" function="internal">
    <lane id=":9_1_0" index="0" disallow="pedestrian tram rail_urban rail rail_electric rail_fast ship" speed="13.89" length="19.12" width="3.75" shape="239.82,682.93,7.82 241.63,678.95,7.83 244.32,674.53,7.85 247.38,670.36,7.87 250.34,667.10,7.88"/>
  </edge>
  <edge id=":9.8_0" function="internal">
    <lane id=":9.8_0_0" index="0" disallow="pedestrian tram rail_urban rail rail_electric rail_fast ship" speed="22.22" length="0.30" width="3.75" shape="567.74,502.53 567.99,502.35"/>
    <lane id=":9.8_0_1" index="1" disallow="pedestrian tram rail_urban rail rail_electric rail_fast ship" speed="22.22" length="0.30" width="3.75" shape="569.95,505.56 570.19,505.39"/>
    <lane id=":9.8_0_2" index="2" disallow="pedestrian tram rail_urban rail rail_electric rail_fast ship" speed="22.22" length="0.30" width="3.75" shape="572.15,508.59 572.39,508.42"/>
  </edge>
  <edge id="-0" from="0.begin" to="0" priority="1" type="driving" shape="1102.73,202.87 1101.60,203.54 1100.45,204.21 1099.28,204.89 1098.09,205.59 1096.88,206.29 1095.64,207.01 1094.39,207.73 1093.11,208.46 1091.81,209.21 1090.50,209.96 1089.16,210.72 1087.80,211.50 1086.43,212.28 1085.03,213.07 1083.62,213.87 1082.18,214.68 1080.73,215.50 1079.25,216.33 1077.76,217.17 1076.25,218.01 1074.72,218.87 1073.17,219.74 1071.60,220.61 1070.02,221.49 1068.42,222.39 1066.80,223.29 1065.16,224.20 1063.50,225.12 1061.83,226.04 1060.14,226.98 1058.43,227.92 1056.70,228.88 1054.96,229.84 1053.20,230.81 1051.43,231.79 1049.64,232.77 1047.83,233.77 1046.01,234.77 1044.17,235.78 1042.31,236.80 1040.44,237.83 1038.55,238.86 1036.65,239.90 1034.74,240.95 1032.80,242.01 1030.86,243.08 1028.90,244.15 1026.92,245.23 1024.93,246.32 1022.92,247.42 1020.91,248.52 1018.87,249.63 1016.83,250.75 1014.77,251.88 1012.69,253.01 1010.60,254.15 1008.50,255.30 1006.39,256.45 1004.26,257.61 1002.13,258.78 999.97,259.96 997.81,261.14 995.63,262.33 993.44,263.52 991.24,264.72 989.03,265.93 986.81,267.15 984.57,268.37 982.32,269.60">
    <lane id="-0_0" index="0" disallow="pedestrian tram rail_urban rail rail_electric rail_fast ship" speed="22.22" length="133.84" width="3.75" shape="1107.48,210.96 1106.35,211.62 1105.19,212.30 1104.00,213.00 1102.80,213.70 1101.57,214.41 1100.33,215.13 1099.06,215.85 1097.78,216.59 1096.47,217.34 1095.15,218.10 1093.80,218.87 1092.44,219.64 1091.05,220.43 1089.65,221.23 1088.23,222.03 1086.79,222.85 1085.33,223.67 1083.85,224.50 1082.35,225.34 1080.83,226.19 1079.30,227.05 1077.74,227.92 1076.17,228.80 1074.58,229.68 1072.97,230.58 1071.35,231.48 1069.71,232.39 1068.05,233.31 1066.37,234.24 1064.68,235.18 1062.96,236.13 1061.24,237.08 1059.49,238.05 1057.73,239.02 1055.95,240.00 1054.16,240.98 1052.35,241.98 1050.52,242.98 1048.68,244.00 1046.82,245.02 1044.95,246.04 1043.06,247.08 1041.16,248.12 1039.24,249.18 1037.31,250.23 1035.36,251.30 1033.40,252.38 1031.42,253.46 1029.43,254.55 1027.42,255.64 1025.40,256.75 1023.37,257.86 1021.32,258.98 1019.26,260.11 1017.19,261.24 1015.10,262.38 1013.00,263.53 1010.88,264.68 1008.76,265.84 1006.62,267.01 1004.47,268.19 1002.30,269.37 1000.13,270.56 997.94,271.75 995.74,272.95 993.53,274.16 991.30,275.38 990.33,275.91" type="driving"/>
    <lane id="-0_1" index="1" disallow="pedestrian tram rail_urban rail rail_electric rail_fast ship" speed="22.22" length="133.84" width="3.75" shape="1105.58,207.72 1104.45,208.39 1103.29,209.07 1102.11,209.76 1100.91,210.45 1099.69,211.16 1098.45,211.88 1097.19,212.60 1095.91,213.34 1094.61,214.09 1093.29,214.84 1091.95,215.61 1090.58,216.38 1089.20,217.17 1087.80,217.96 1086.38,218.77 1084.94,219.58 1083.49,220.40 1082.01,221.23 1080.51,222.07 1079.00,222.92 1077.46,223.78 1075.91,224.65 1074.34,225.52 1072.76,226.41 1071.15,227.30 1069.53,228.20 1067.89,229.11 1066.23,230.03 1064.55,230.96 1062.86,231.90 1061.15,232.85 1059.42,233.80 1057.68,234.76 1055.92,235.73 1054.14,236.71 1052.35,237.70 1050.54,238.69 1048.72,239.70 1046.88,240.71 1045.02,241.73 1043.15,242.76 1041.26,243.79 1039.36,244.84 1037.44,245.89 1035.51,246.95 1033.56,248.01 1031.60,249.09 1029.62,250.17 1027.63,251.26 1025.62,252.35 1023.60,253.46 1021.57,254.57 1019.52,255.69 1017.46,256.81 1015.39,257.95 1013.30,259.09 1011.20,260.23 1009.09,261.39 1006.96,262.55 1004.82,263.72 1002.67,264.89 1000.51,266.08 998.33,267.26 996.14,268.46 993.94,269.66 991.73,270.87 989.50,272.08 988.53,272.61" type="driving"/>
    <lane id="-0_2" index="2" disallow="pedestrian tram rail_urban rail rail_electric rail_fast ship" speed="22.22" length="133.84" width="3.75" shape="1103.68,204.49 1102.55,205.15 1101.40,205.83 1100.23,206.51 1099.03,207.21 1097.82,207.92 1096.58,208.63 1095.32,209.35 1094.04,210.09 1092.75,210.83 1091.43,211.59 1090.09,212.35 1088.73,213.12 1087.35,213.91 1085.95,214.70 1084.54,215.50 1083.10,216.31 1081.65,217.13 1080.17,217.96 1078.68,218.80 1077.16,219.65 1075.63,220.51 1074.08,221.37 1072.52,222.25 1070.93,223.13 1069.33,224.02 1067.71,224.93 1066.07,225.84 1064.41,226.76 1062.74,227.68 1061.04,228.62 1059.34,229.56 1057.61,230.52 1055.87,231.48 1054.11,232.45 1052.33,233.43 1050.54,234.41 1048.73,235.41 1046.91,236.41 1045.07,237.42 1043.21,238.44 1041.34,239.47 1039.46,240.50 1037.55,241.55 1035.64,242.60 1033.70,243.66 1031.76,244.72 1029.80,245.80 1027.82,246.88 1025.83,247.97 1023.82,249.06 1021.80,250.17 1019.77,251.28 1017.73,252.40 1015.66,253.52 1013.59,254.66 1011.50,255.80 1009.40,256.94 1007.29,258.10 1005.16,259.26 1003.02,260.43 1000.87,261.60 998.71,262.78 996.53,263.97 994.34,265.17 992.14,266.37 989.93,267.58 987.71,268.79 986.74,269.32" type="driving"/>
  </edge>