<?xml version='1.0' encoding='UTF-8'?>
<!-- generated on 2022-09-02 14:19:41 by Eclipse SUMO netconvert Version 1.13.0
<configuration xmlns:xsi="http://www.w3.org/2001/XMLSchema-instance" xsi:noNamespaceSchemaLocation="http://sumo.dlr.de/xsd/netconvertConfiguration.xsd">

    <input>
        <opendrive-files value="map\classification\18\62723676\62723676.xodr"/>
    </input>

    <output>
        <output-file value="C:\Users\LinGe\AppData\Local\Temp\tmppvrvncfr\62723676.net.xml"/>
    </output>

    <processing>
        <geometry.max-grade.fix value="false"/>
    </processing>

    <tls_building>
        <tls.left-green.time value="0"/>
    </tls_building>

    <junctions>
        <rectangular-lane-cut value="true"/>
    </junctions>

    <report>
        <aggregate-warnings value="5"/>
    </report>

</configuration>
-->
<net xmlns:xsi="http://www.w3.org/2001/XMLSchema-instance" version="1.9" junctionCornerDetail="5" rectangularLaneCut="true" limitTurnSpeed="5.50" xsi:noNamespaceSchemaLocation="http://sumo.dlr.de/xsd/net_file.xsd">
  <location netOffset="21.17,101.26" convBoundary="0.00,0.00,1122.35,1333.38" origBoundary="-21.17,-101.26,1101.18,1232.12" projParameter="!"/>
  <type id="bidirectional" priority="1" speed="1.39" disallow="pedestrian tram rail_urban rail rail_electric rail_fast ship" width="3.65"/>
  <type id="border" priority="0" speed="1.39" disallow="all" discard="1" width="0.10"/>
  <type id="driving" priority="1" speed="13.89" disallow="pedestrian tram rail_urban rail rail_electric rail_fast ship" width="3.65"/>
  <type id="entry" priority="1" speed="22.22" disallow="pedestrian tram rail_urban rail rail_electric rail_fast ship" width="3.65"/>
  <type id="exit" priority="1" speed="22.22" disallow="pedestrian tram rail_urban rail rail_electric rail_fast ship" width="3.65"/>
  <type id="median" priority="0" speed="1.39" disallow="all" discard="1" width="0.10"/>
  <type id="mwyEntry" priority="1" speed="22.22" allow="private emergency authority army vip passenger hov taxi bus coach delivery truck trailer motorcycle evehicle custom1 custom2" width="3.65"/>
  <type id="mwyExit" priority="1" speed="22.22" allow="private emergency authority army vip passenger hov taxi bus coach delivery truck trailer motorcycle evehicle custom1 custom2" width="3.65"/>
  <type id="none" priority="0" speed="1.39" disallow="all" discard="1" width="1.00"/>
  <type id="offRamp" priority="1" speed="22.22" allow="private emergency authority army vip passenger hov taxi bus coach delivery truck trailer motorcycle evehicle custom1 custom2" width="3.65"/>
  <type id="onRamp" priority="1" speed="22.22" allow="private emergency authority army vip passenger hov taxi bus coach delivery truck trailer motorcycle evehicle custom1 custom2" width="3.65"/>
  <type id="parking" priority="1" speed="1.39" disallow="pedestrian tram rail_urban rail rail_electric rail_fast ship" width="2.50"/>
  <type id="rail" priority="3" speed="33.33" allow="rail_urban rail rail_electric rail_fast" width="3.65"/>
  <type id="restricted" priority="0" speed="13.89" disallow="all" width="3.65"/>
  <type id="roadWorks" priority="0" speed="1.39" allow="authority" width="3.65"/>
  <type id="shoulder" priority="0" speed="1.39" disallow="all" discard="1" width="1.00"/>
  <type id="special1" priority="1" speed="22.22" allow="custom1" discard="1" width="3.65"/>
  <type id="special2" priority="1" speed="22.22" allow="custom2" discard="1" width="3.65"/>
  <type id="special3" priority="1" speed="22.22" allow="custom1 custom2" discard="1" width="3.65"/>
  <type id="stop" priority="1" speed="13.89" disallow="pedestrian tram rail_urban rail rail_electric rail_fast ship" width="3.65"/>
  <type id="tram" priority="2" speed="13.89" allow="tram" width="3.65"/>
  <edge id=":0_0" function="internal">
    <lane id=":0_0_0" index="0" disallow="pedestrian tram rail_urban rail rail_electric rail_fast ship" speed="22.22" length="59.98" width="3.75" shape="996.82,290.97 984.34,299.26 969.06,310.13 955.48,320.14 948.05,325.86"/>
  </edge>
  <edge id=":0_1" function="internal">
    <lane id=":0_1_0" index="0" disallow="pedestrian tram rail_urban rail rail_electric rail_fast ship" speed="22.22" length="60.14" width="3.75" shape="996.82,290.97 945.52,322.34"/>
    <lane id=":0_1_1" index="1" disallow="pedestrian tram rail_urban rail rail_electric rail_fast ship" speed="22.22" length="60.14" width="3.75" shape="994.87,287.77 943.56,319.14"/>
    <lane id=":0_1_2" index="2" disallow="pedestrian tram rail_urban rail rail_electric rail_fast ship" speed="22.22" length="60.14" width="3.75" shape="992.91,284.57 941.60,315.94"/>
  </edge>
  <edge id=":1_0" function="internal">
    <lane id=":1_0_0" index="0" disallow="pedestrian tram rail_urban rail rail_electric rail_fast ship" speed="15.97" length="28.40" width="3.75" shape="523.28,561.70 531.04,555.94 536.87,550.58 540.94,545.85 543.39,541.99"/>
  </edge>
  <edge id=":1_1" function="internal">
    <lane id=":1_1_0" index="0" disallow="pedestrian tram rail_urban rail rail_electric rail_fast ship" speed="22.22" length="29.02" width="3.75" shape="523.28,561.70 547.47,545.62"/>
    <lane id=":1_1_1" index="1" disallow="pedestrian tram rail_urban rail rail_electric rail_fast ship" speed="22.22" length="29.02" width="3.75" shape="525.37,564.82 549.53,548.75"/>
    <lane id=":1_1_2" index="2" disallow="pedestrian tram rail_urban rail rail_electric rail_fast ship" speed="22.22" length="29.02" width="3.75" shape="527.45,567.93 551.60,551.87"/>
  </edge>
  <edge id=":10_0" function="internal">
    <lane id=":10_0_0" index="0" disallow="pedestrian tram rail_urban rail rail_electric rail_fast ship" speed="16.67" length="19.45" width="3.75" shape="171.47,246.65,20.00 171.52,242.75,20.00 171.20,238.46,20.00 169.86,233.65,20.00 166.82,228.18,20.00"/>
  </edge>
  <edge id=":10_1" function="internal">
    <lane id=":10_1_0" index="0" disallow="pedestrian tram rail_urban rail rail_electric rail_fast ship" speed="22.22" length="17.67" width="3.75" shape="176.99,242.63,20.00 166.82,228.18,20.00"/>
    <lane id=":10_1_1" index="1" disallow="pedestrian tram rail_urban rail rail_electric rail_fast ship" speed="22.22" length="17.67" width="3.75" shape="180.05,240.47,20.00 169.89,226.02,20.00"/>
    <lane id=":10_1_2" index="2" disallow="pedestrian tram rail_urban rail rail_electric rail_fast ship" speed="22.22" length="17.67" width="3.75" shape="183.12,238.32,20.00 172.96,223.87,20.00"/>
  </edge>
  <edge id=":11_0" function="internal">
    <lane id=":11_0_0" index="0" disallow="pedestrian tram rail_urban rail rail_electric rail_fast ship" speed="22.22" length="49.35" width="3.75" shape="774.06,859.22,14.20 774.35,868.34,14.21 775.08,883.88,14.22 775.94,899.41,14.23 776.62,908.50,14.24"/>
  </edge>
  <edge id=":11_1" function="internal">
    <lane id=":11_1_0" index="0" disallow="pedestrian tram rail_urban rail rail_electric rail_fast ship" speed="20.83" length="48.96" width="3.75" shape="770.11,859.98,14.20 776.62,908.50,14.24"/>
  </edge>
  <edge id=":11.10_0" function="internal">
    <lane id=":11.10_0_0" index="0" disallow="pedestrian tram rail_urban rail rail_electric rail_fast ship" speed="22.22" length="0.30" width="3.75" shape="609.39,801.19,20.00 609.57,801.42,20.00"/>
    <lane id=":11.10_0_1" index="1" disallow="pedestrian tram rail_urban rail rail_electric rail_fast ship" speed="22.22" length="0.30" width="3.75" shape="606.47,803.54,20.00 606.66,803.78,20.00"/>
    <lane id=":11.10_0_2" index="2" disallow="pedestrian tram rail_urban rail rail_electric rail_fast ship" speed="22.22" length="0.30" width="3.75" shape="603.55,805.90,20.00 603.74,806.14,20.00"/>
  </edge>
  <edge id=":15.14_0" function="internal">
    <lane id=":15.14_0_0" index="0" disallow="pedestrian tram rail_urban rail rail_electric rail_fast ship" speed="22.22" length="0.30" width="3.75" shape="591.88,815.72,20.00 591.69,815.48,20.00"/>
    <lane id=":15.14_0_1" index="1" disallow="pedestrian tram rail_urban rail rail_electric rail_fast ship" speed="22.22" length="0.30" width="3.75" shape="594.79,813.36,20.00 594.61,813.13,20.00"/>
    <lane id=":15.14_0_2" index="2" disallow="pedestrian tram rail_urban rail rail_electric rail_fast ship" speed="22.22" length="0.30" width="3.75" shape="597.71,811.00,20.00 597.52,810.77,20.00"/>
  </edge>
  <edge id=":19.18_0" function="internal">
    <lane id=":19.18_0_0" index="0" disallow="pedestrian tram rail_urban rail rail_electric rail_fast ship" speed="19.44" length="0.30" width="3.75" shape="534.03,983.95,9.58 533.75,983.86,9.57"/>
  </edge>
  <edge id=":2_0" function="internal">
    <lane id=":2_0_0" index="0" disallow="pedestrian tram rail_urban rail rail_electric rail_fast ship" speed="15.97" length="69.64" width="3.75" shape="158.57,176.87,20.00 168.52,190.04,20.00 182.25,207.31,20.00 194.99,222.98,20.00 201.96,231.33,20.00"/>
  </edge>
  <edge id=":2_1" function="internal">
    <lane id=":2_1_0" index="0" disallow="pedestrian tram rail_urban rail rail_electric rail_fast ship" speed="22.22" length="69.74" width="3.75" shape="158.57,176.87,20.00 198.67,233.93,20.00"/>
    <lane id=":2_1_1" index="1" disallow="pedestrian tram rail_urban rail rail_electric rail_fast ship" speed="22.22" length="69.74" width="3.75" shape="155.50,179.03,20.00 195.60,236.09,20.00"/>
    <lane id=":2_1_2" index="2" disallow="pedestrian tram rail_urban rail rail_electric rail_fast ship" speed="22.22" length="69.74" width="3.75" shape="152.44,181.18,20.00 192.54,238.25,20.00"/>
  </edge>
  <edge id=":2.1_0" function="internal">
    <lane id=":2.1_0_0" index="0" disallow="pedestrian tram rail_urban rail rail_electric rail_fast ship" speed="22.22" length="0.30" width="3.75" shape="461.45,632.22 461.21,632.40"/>
    <lane id=":2.1_0_1" index="1" disallow="pedestrian tram rail_urban rail rail_electric rail_fast ship" speed="22.22" length="0.30" width="3.75" shape="459.24,629.19 459.00,629.36"/>
    <lane id=":2.1_0_2" index="2" disallow="pedestrian tram rail_urban rail rail_electric rail_fast ship" speed="22.22" length="0.30" width="3.75" shape="457.04,626.15 456.79,626.33"/>
  </edge>
  <edge id=":21.20_0" function="internal">
    <lane id=":21.20_0_0" index="0" disallow="pedestrian tram rail_urban rail rail_electric rail_fast ship" speed="9.72" length="0.29" width="3.75" shape="437.33,409.82,11.67 437.62,409.86,11.66"/>
  </edge>
  <edge id=":24.23_0" function="internal">
    <lane id=":24.23_0_0" index="0" disallow="pedestrian tram rail_urban rail rail_electric rail_fast ship" speed="22.22" length="0.30" width="3.75" shape="777.07,794.29,11.63 777.05,794.59,11.63"/>
  </edge>
  <edge id=":27.26_0" function="internal">
    <lane id=":27.26_0_0" index="0" disallow="pedestrian tram rail_urban rail rail_electric rail_fast ship" speed="9.72" length="0.28" width="3.75" shape="492.59,496.78,9.61 492.32,496.78,9.65"/>
  </edge>
  <edge id=":29.28_0" function="internal">
    <lane id=":29.28_0_0" index="0" disallow="pedestrian tram rail_urban rail rail_electric rail_fast ship" speed="11.11" length="0.30" width="3.75" shape="130.27,1286.28,13.89 130.02,1286.13,13.89"/>
  </edge>
  <edge id=":3_0" function="internal">
    <lane id=":3_0_0" index="0" disallow="pedestrian tram rail_urban rail rail_electric rail_fast ship" speed="20.83" length="46.91" width="3.75" shape="976.83,1222.34,20.00 967.28,1213.61,19.95 956.31,1204.52,19.91 946.58,1196.86,19.86 940.71,1192.46,19.84"/>
  </edge>
  <edge id=":3_1" function="internal">
    <lane id=":3_1_0" index="0" disallow="pedestrian tram rail_urban rail rail_electric rail_fast ship" speed="22.22" length="47.05" width="3.75" shape="976.83,1222.34,20.00 943.53,1189.11,20.00"/>
    <lane id=":3_1_1" index="1" disallow="pedestrian tram rail_urban rail rail_electric rail_fast ship" speed="22.22" length="47.05" width="3.75" shape="979.48,1219.69,20.00 946.18,1186.46,20.00"/>
    <lane id=":3_1_2" index="2" disallow="pedestrian tram rail_urban rail rail_electric rail_fast ship" speed="22.22" length="47.05" width="3.75" shape="982.13,1217.03,20.00 948.83,1183.80,20.00"/>
  </edge>
  <edge id=":31.30_0" function="internal">
    <lane id=":31.30_0_0" index="0" disallow="pedestrian tram rail_urban rail rail_electric rail_fast ship" speed="19.44" length="0.30" width="3.75" shape="60.94,232.63,13.54 61.14,232.41,13.54"/>
  </edge>
  <edge id=":4_0" function="internal">
    <lane id=":4_0_0" index="0" disallow="pedestrian tram rail_urban rail rail_electric rail_fast ship" speed="20.83" length="52.87" width="3.75" shape="143.05,910.88,0.19 136.27,915.60,0.16 124.71,924.24,0.11 111.90,934.31,0.05 101.35,943.33"/>
  </edge>
  <edge id=":4_1" function="internal">
    <lane id=":4_1_0" index="0" disallow="pedestrian tram rail_urban rail rail_electric rail_fast ship" speed="22.22" length="52.34" width="3.75" shape="139.68,907.68 101.35,943.33"/>
    <lane id=":4_1_1" index="1" disallow="pedestrian tram rail_urban rail rail_electric rail_fast ship" speed="22.22" length="52.34" width="3.75" shape="137.12,904.93 98.80,940.58"/>
    <lane id=":4_1_2" index="2" disallow="pedestrian tram rail_urban rail rail_electric rail_fast ship" speed="22.22" length="52.34" width="3.75" shape="134.57,902.19 96.24,937.84"/>
  </edge>
  <edge id=":5_0" function="internal">
    <lane id=":5_0_0" index="0" disallow="pedestrian tram rail_urban rail rail_electric rail_fast ship" speed="19.44" length="3.00" width="3.75" shape="662.54,1038.74,12.96 659.84,1037.46,12.89"/>
  </edge>
  <edge id=":5_1" function="internal">
    <lane id=":5_1_0" index="0" disallow="pedestrian tram rail_urban rail rail_electric rail_fast ship" speed="19.44" length="3.00" width="3.75" shape="662.54,1038.74,12.96 659.83,1037.46,12.92"/>
  </edge>
  <edge id=":5.4_0" function="internal">
    <lane id=":5.4_0_0" index="0" disallow="pedestrian tram rail_urban rail rail_electric rail_fast ship" speed="22.22" length="0.30" width="3.75" shape="447.82,614.00 448.07,613.82"/>
    <lane id=":5.4_0_1" index="1" disallow="pedestrian tram rail_urban rail rail_electric rail_fast ship" speed="22.22" length="0.30" width="3.75" shape="450.03,617.03 450.27,616.86"/>
    <lane id=":5.4_0_2" index="2" disallow="pedestrian tram rail_urban rail rail_electric rail_fast ship" speed="22.22" length="0.30" width="3.75" shape="452.24,620.06 452.48,619.89"/>
  </edge>
  <edge id=":6_0" function="internal">
    <lane id=":6_0_0" index="0" disallow="pedestrian tram rail_urban rail rail_electric rail_fast ship" speed="15.97" length="41.32" width="3.75" shape="900.42,317.93,0.09 906.44,315.55,0.08 916.07,311.45,0.05 927.22,306.20,0.03 937.80,300.41"/>
  </edge>
  <edge id=":6_1" function="internal">
    <lane id=":6_1_0" index="0" disallow="pedestrian tram rail_urban rail rail_electric rail_fast ship" speed="22.22" length="40.76" width="3.75" shape="903.04,321.70 937.80,300.41"/>
    <lane id=":6_1_1" index="1" disallow="pedestrian tram rail_urban rail rail_electric rail_fast ship" speed="22.22" length="40.76" width="3.75" shape="905.00,324.90 939.75,303.61"/>
    <lane id=":6_1_2" index="2" disallow="pedestrian tram rail_urban rail rail_electric rail_fast ship" speed="22.22" length="40.76" width="3.75" shape="906.96,328.10 941.71,306.80"/>
  </edge>
  <edge id=":7_0" function="internal">
    <lane id=":7_0_0" index="0" disallow="pedestrian tram rail_urban rail rail_electric rail_fast ship" speed="22.22" length="130.84" width="3.75" shape="850.06,1056.83,20.00 863.84,1071.93,20.00 891.84,1102.19,20.00 921.23,1133.71,20.00 939.18,1152.62,20.00"/>
  </edge>
  <edge id=":7_1" function="internal">
    <lane id=":7_1_0" index="0" disallow="pedestrian tram rail_urban rail rail_electric rail_fast ship" speed="22.22" length="130.65" width="3.75" shape="847.26,1059.82,20.00 939.18,1152.62,20.00"/>
    <lane id=":7_1_1" index="1" disallow="pedestrian tram rail_urban rail rail_electric rail_fast ship" speed="22.22" length="130.65" width="3.75" shape="844.58,1062.44,20.00 936.53,1155.27,20.00"/>
    <lane id=":7_1_2" index="2" disallow="pedestrian tram rail_urban rail rail_electric rail_fast ship" speed="22.22" length="130.65" width="3.75" shape="841.90,1065.07,20.00 933.88,1157.92,20.00"/>
  </edge>
  <edge id=":8_0" function="internal">
    <lane id=":8_0_0" index="0" disallow="pedestrian tram rail_urban rail rail_electric rail_fast ship" speed="22.22" length="3.00" width="3.75" shape="803.06,594.37,7.48 802.42,597.30,7.55"/>
  </edge>
  <edge id=":8_1" function="internal">
    <lane id=":8_1_0" index="0" disallow="pedestrian tram rail_urban rail rail_electric rail_fast ship" speed="16.67" length="3.00" width="3.75" shape="803.06,594.37,7.48 802.41,597.30,7.52"/>
  </edge>
  <edge id=":9_0" function="internal">
    <lane id=":9_0_0" index="0" disallow="pedestrian tram rail_urban rail rail_electric rail_fast ship" speed="15.97" length="30.15" width="3.75" shape="423.67,540.24,20.00 424.39,544.92,20.00 426.42,551.26,20.00 430.05,558.93,20.00 435.55,567.61,20.00"/>
  </edge>
  <edge id=":9_1" function="internal">
    <lane id=":9_1_0" index="0" disallow="pedestrian tram rail_urban rail rail_electric rail_fast ship" speed="22.22" length="28.81" width="3.75" shape="418.73,544.22,20.00 435.55,567.61,20.00"/>
    <lane id=":9_1_1" index="1" disallow="pedestrian tram rail_urban rail rail_electric rail_fast ship" speed="22.22" length="28.81" width="3.75" shape="415.69,546.41,20.00 432.51,569.80,20.00"/>
    <lane id=":9_1_2" index="2" disallow="pedestrian tram rail_urban rail rail_electric rail_fast ship" speed="22.22" length="28.81" width="3.75" shape="412.64,548.59,20.00 429.47,571.99,20.00"/>
  </edge>
  <edge id="-0" from="0.begin" to="0" priority="1" type="driving" shape="1122.35,202.87 1121.45,203.44 1120.53,204.02 1119.59,204.62 1118.62,205.23 1117.62,205.85 1116.61,206.49 1115.57,207.14 1114.51,207.80 1113.42,208.48 1112.31,209.17 1111.18,209.88 1110.02,210.60 1108.84,211.33 1107.64,212.08 1106.42,212.84 1105.17,213.61 1103.91,214.39 1102.62,215.19 1101.31,216.00 1099.97,216.83 1098.62,217.66 1097.24,218.51 1095.85,219.38 1094.43,220.25 1092.99,221.14 1091.53,222.04 1090.05,222.95 1088.55,223.87 1087.03,224.80 1085.49,225.75 1083.93,226.71 1082.35,227.68 1080.75,228.66 1079.13,229.66 1077.49,230.66 1075.83,231.68 1074.16,232.71 1072.46,233.75 1070.75,234.80 1069.01,235.86 1067.26,236.94 1065.49,238.02 1063.70,239.12 1061.90,240.22 1060.07,241.34 1058.23,242.46 1056.37,243.60 1054.49,244.75 1052.60,245.91 1050.69,247.08 1048.76,248.26 1046.82,249.45 1044.86,250.64 1042.88,251.85 1040.88,253.07 1038.87,254.30 1036.85,255.54 1034.80,256.79 1032.75,258.04 1030.67,259.31 1028.58,260.59 1026.48,261.87 1024.36,263.17 1022.23,264.47 1020.08,265.78 1017.91,267.10 1015.74,268.43 1013.54,269.77 1011.34,271.12 1009.11,272.48 1006.88,273.84 1004.63,275.22 1002.37,276.60 1000.09,277.99 997.80,279.39 995.50,280.79 993.19,282.21 990.86,283.63 988.52,285.06">
    <lane id="-0_0" index="0" disallow="pedestrian tram rail_urban rail rail_electric rail_fast ship" speed="22.22" length="153.13" width="3.75" shape="1127.36,210.80 1126.46,211.37 1125.53,211.95 1124.58,212.55 1123.61,213.16 1122.61,213.79 1121.59,214.43 1120.54,215.08 1119.47,215.75 1118.38,216.43 1117.27,217.13 1116.13,217.84 1114.97,218.56 1113.79,219.29 1112.59,220.04 1111.36,220.80 1110.11,221.58 1108.84,222.36 1107.55,223.16 1106.24,223.98 1104.90,224.80 1103.55,225.64 1102.17,226.49 1100.77,227.35 1099.35,228.23 1097.91,229.12 1096.45,230.02 1094.97,230.93 1093.46,231.85 1091.94,232.79 1090.40,233.74 1088.84,234.70 1087.26,235.67 1085.66,236.65 1084.03,237.65 1082.39,238.66 1080.74,239.67 1079.06,240.70 1077.36,241.74 1075.64,242.79 1073.91,243.86 1072.16,244.93 1070.39,246.02 1068.60,247.11 1066.79,248.22 1064.97,249.33 1063.12,250.46 1061.26,251.60 1059.39,252.75 1057.49,253.91 1055.58,255.08 1053.65,256.25 1051.71,257.44 1049.75,258.64 1047.77,259.85 1045.77,261.07 1043.76,262.30 1041.73,263.54 1039.69,264.79 1037.63,266.04 1035.56,267.31 1033.47,268.59 1031.37,269.87 1029.25,271.17 1027.11,272.47 1024.96,273.78 1022.80,275.10 1020.62,276.44 1018.43,277.77 1016.22,279.12 1014.00,280.48 1011.77,281.84 1009.52,283.22 1007.26,284.60 1004.98,285.99 1002.69,287.39 1000.39,288.79 998.07,290.21 996.82,290.97" type="driving"/>
    <lane id="-0_1" index="1" disallow="pedestrian tram rail_urban rail rail_electric rail_fast ship" speed="22.22" length="153.13" width="3.75" shape="1125.35,207.63 1124.46,208.20 1123.53,208.78 1122.58,209.38 1121.61,209.99 1120.61,210.61 1119.60,211.25 1118.55,211.91 1117.49,212.57 1116.40,213.25 1115.29,213.95 1114.15,214.65 1112.99,215.37 1111.81,216.11 1110.61,216.86 1109.38,217.62 1108.14,218.39 1106.87,219.18 1105.58,219.98 1104.27,220.79 1102.93,221.61 1101.58,222.45 1100.20,223.30 1098.80,224.16 1097.38,225.04 1095.94,225.92 1094.48,226.82 1093.00,227.74 1091.50,228.66 1089.98,229.60 1088.44,230.54 1086.88,231.50 1085.29,232.48 1083.69,233.46 1082.07,234.45 1080.43,235.46 1078.77,236.48 1077.10,237.51 1075.40,238.55 1073.69,239.60 1071.95,240.66 1070.20,241.73 1068.43,242.82 1066.64,243.91 1064.83,245.02 1063.01,246.14 1061.17,247.26 1059.31,248.40 1057.43,249.55 1055.54,250.71 1053.62,251.88 1051.70,253.06 1049.75,254.24 1047.79,255.44 1045.81,256.65 1043.82,257.87 1041.81,259.10 1039.78,260.34 1037.74,261.59 1035.68,262.84 1033.61,264.11 1031.52,265.39 1029.41,266.67 1027.29,267.97 1025.16,269.27 1023.01,270.58 1020.85,271.90 1018.67,273.24 1016.47,274.57 1014.27,275.92 1012.05,277.28 1009.81,278.64 1007.56,280.02 1005.30,281.40 1003.02,282.79 1000.74,284.19 998.43,285.59 996.12,287.01 994.87,287.77" type="driving"/>
    <lane id="-0_2" index="2" disallow="pedestrian tram rail_urban rail rail_electric rail_fast ship" speed="22.22" length="153.13" width="3.75" shape="1123.35,204.46 1122.45,205.03 1121.53,205.61 1120.58,206.20 1119.62,206.81 1118.62,207.44 1117.60,208.08 1116.56,208.73 1115.50,209.39 1114.41,210.07 1113.30,210.76 1112.17,211.47 1111.01,212.19 1109.83,212.92 1108.63,213.67 1107.41,214.43 1106.16,215.20 1104.89,215.99 1103.60,216.79 1102.29,217.60 1100.96,218.42 1099.60,219.26 1098.23,220.11 1096.83,220.97 1095.41,221.85 1093.97,222.73 1092.52,223.63 1091.04,224.54 1089.53,225.47 1088.01,226.40 1086.47,227.35 1084.91,228.31 1083.33,229.28 1081.73,230.26 1080.11,231.26 1078.47,232.26 1076.81,233.28 1075.14,234.31 1073.44,235.35 1071.73,236.40 1069.99,237.46 1068.24,238.54 1066.47,239.62 1064.68,240.71 1062.88,241.82 1061.05,242.94 1059.21,244.06 1057.35,245.20 1055.47,246.35 1053.58,247.51 1051.67,248.68 1049.74,249.86 1047.79,251.05 1045.83,252.24 1043.86,253.45 1041.86,254.67 1039.85,255.90 1037.82,257.14 1035.78,258.39 1033.72,259.64 1031.65,260.91 1029.56,262.19 1027.46,263.47 1025.34,264.77 1023.20,266.07 1021.05,267.38 1018.89,268.70 1016.71,270.03 1014.52,271.37 1012.31,272.72 1010.09,274.08 1007.86,275.44 1005.61,276.82 1003.35,278.20 1001.07,279.59 998.78,280.99 996.48,282.39 994.16,283.81 992.91,284.57" type="driving"/>
  </edge>
  <edge id="-1" from="0" to="2.1" priority="1" type="driving" shape="988.52,285.06 986.97,286.00 985.42,286.95 983.86,287.90 982.30,288.86 980.73,289.81 979.16,290.78 977.58,291.74 976.00,292.71 974.41,293.68 972.82,294.65 971.22,295.63 969.62,296.61 968.01,297.59 966.40,298.58 964.78,299.57 963.16,300.56 961.53,301.55 959.90,302.55 958.26,303.55 956.62,304.56 954.97,305.56 953.32,306.57 951.67,307.58 950.01,308.60 948.35,309.62 946.68,310.64 945.01,311.66 943.33,312.69 941.65,313.72 939.96,314.75 938.27,315.78 936.58,316.82 934.88,317.86 933.18,318.90 931.48,319.94 929.77,320.99 928.06,322.04 926.34,323.09 924.62,324.15 922.89,325.20 921.17,326.26 919.43,327.32 917.70,328.39 915.96,329.45 914.22,330.52 912.47,331.59 910.72,332.67 908.97,333.74 907.21,334.82 905.45,335.90 903.69,336.98 901.92,338.06 900.15,339.15 898.38,340.24 896.61,341.33 894.83,342.42 893.05,343.51 891.26,344.61 889.47,345.71 887.68,346.81 885.89,347.91 884.09,349.02 882.30,350.12 880.49,351.23 878.69,352.34 876.88,353.45 875.07,354.56 873.26,355.68 871.45,356.79 869.63,357.91 867.81,359.03 865.99,360.15 864.16,361.28 862.34,362.40 860.51,363.53 858.68,364.66 856.85,365.78 855.01,366.92 853.17,368.05 851.33,369.18 849.49,370.32 847.65,371.45 845.81,372.59 843.96,373.73 842.11,374.87 840.26,376.02 838.41,377.16 836.55,378.30 834.70,379.45 832.84,380.60 830.98,381.75 829.12,382.89 827.26,384.05 825.40,385.20 823.53,386.35 821.67,387.50 819.80,388.66 817.93,389.82 816.06,390.97 814.19,392.13 812.32,393.29 810.44,394.45 808.57,395.61 806.70,396.77 804.82,397.94 802.94,399.10 801.06,400.26 799.19,401.43 797.31,402.60 795.43,403.76 793.55,404.93 791.66,406.10 789.78,407.27 787.90,408.44 786.02,409.61 784.13,410.78 782.25,411.95 780.36,413.12 778.48,414.29 776.59,415.47 774.71,416.64 772.82,417.81 770.94,418.99 769.05,420.16 767.16,421.34 765.28,422.51 763.39,423.69 761.50,424.86 759.62,426.04 757.73,427.22 755.85,428.39 753.96,429.57 752.08,430.75 750.19,431.93 748.31,433.10 746.42,434.28 744.54,435.46 742.65,436.64 740.77,437.82 738.89,438.99 737.01,440.17 735.12,441.35 733.24,442.53 731.36,443.71 729.49,444.88 727.61,446.06 725.73,447.24 723.85,448.42 721.98,449.59 720.10,450.77 718.23,451.95 716.36,453.12 714.48,454.30 712.61,455.48 710.75,456.65 708.88,457.83 707.01,459.00 705.15,460.18 703.28,461.35 701.42,462.52 699.56,463.70 697.70,464.87 695.84,466.04 693.98,467.21 692.13,468.39 690.28,469.56 688.42,470.73 686.57,471.90 684.73,473.06 682.88,474.23 681.04,475.40 679.19,476.57 677.35,477.73 675.52,478.90 673.68,480.06 671.84,481.22 670.01,482.39 668.18,483.55 666.36,484.71 664.53,485.87 662.71,487.03 660.89,488.18 659.07,489.34 657.25,490.50 655.44,491.65 653.63,492.80 651.82,493.96 650.01,495.11 648.21,496.26 646.41,497.41 644.61,498.56 642.82,499.70 641.03,500.85 639.24,501.99 637.45,503.14 635.67,504.28 633.89,505.42 632.11,506.56 630.34,507.69 628.56,508.83 626.80,509.96 625.03,511.10 623.27,512.23 621.51,513.36 619.76,514.49 618.01,515.62 616.26,516.74 614.51,517.87 612.77,518.99 611.04,520.11 609.30,521.23 607.57,522.35 605.85,523.46 604.12,524.58 602.40,525.69 600.69,526.80 598.98,527.91 597.27,529.01 595.57,530.12 593.87,531.22 592.17,532.32 590.48,533.42 588.79,534.52 587.11,535.62 585.43,536.71 583.76,537.80 582.09,538.89 580.42,539.98 578.76,541.06 577.10,542.14 575.45,543.23 573.80,544.30 572.16,545.38 570.52,546.45 568.88,547.53 567.25,548.60 565.63,549.66 564.01,550.73 562.39,551.79 560.78,552.85 559.17,553.91 557.57,554.97 555.98,556.02 554.39,557.07 552.80,558.12 551.22,559.16 549.64,560.21 548.07,561.25 546.51,562.29 544.95,563.32 543.39,564.35 541.85,565.39 540.30,566.41 538.76,567.44 537.23,568.46 535.70,569.48 534.18,570.50 532.67,571.51 531.15,572.52 529.65,573.53 528.15,574.53 526.66,575.54 525.17,576.54 523.69,577.53 522.21,578.53 520.74,579.52 519.28,580.51 517.82,581.49 516.37,582.47 514.93,583.45 513.49,584.43 512.05,585.40 510.63,586.37 509.21,587.33 507.79,588.30 506.38,589.26 504.98,590.21 503.59,591.17 502.20,592.12 500.82,593.06 499.44,594.01 498.07,594.95 496.71,595.88 495.36,596.81 494.01,597.74 492.67,598.67 491.33,599.59 490.01,600.51 488.69,601.43 487.37,602.34 486.07,603.25 484.77,604.15 483.47,605.05 482.19,605.95 480.91,606.85 479.64,607.74 478.38,608.62 477.12,609.51 475.87,610.38 474.63,611.26 473.40,612.13 472.17,613.00 470.95,613.86 469.74,614.72 468.54,615.58 467.34,616.43 466.15,617.28 464.97,618.12 463.80,618.96 462.63,619.80 461.48,620.63 460.33,621.46 459.19,622.28 458.06,623.10 456.93,623.92 455.81,624.73">