<?xml version='1.0' encoding='UTF-8'?>
<!-- generated on 2022-11-12 22:13:00 by Eclipse SUMO netconvert Version 1.13.0
<configuration xmlns:xsi="http://www.w3.org/2001/XMLSchema-instance" xsi:noNamespaceSchemaLocation="http://sumo.dlr.de/xsd/netconvertConfiguration.xsd">

    <input>
        <opendrive-files value="map_v4\2\44165366\44165366.xodr"/>
    </input>

    <output>
        <output-file value="C:\Users\LinGe\AppData\Local\Temp\tmpukczbslv\44165366.net.xml"/>
    </output>

    <processing>
        <geometry.max-grade.fix value="false"/>
    </processing>

    <tls_building>
        <tls.left-green.time value="0"/>
    </tls_building>

    <junctions>
        <rectangular-lane-cut value="true"/>
    </junctions>

    <report>
        <aggregate-warnings value="5"/>
    </report>

</configuration>
-->
<net xmlns:xsi="http://www.w3.org/2001/XMLSchema-instance" version="1.9" junctionCornerDetail="5" rectangularLaneCut="true" limitTurnSpeed="5.50" xsi:noNamespaceSchemaLocation="http://sumo.dlr.de/xsd/net_file.xsd">
  <location netOffset="157.07,101.26" convBoundary="0.00,0.00,1258.25,1302.51" origBoundary="-157.07,-101.26,1101.18,1201.26" projParameter="!"/>
  <type id="bidirectional" priority="1" speed="1.39" disallow="pedestrian tram rail_urban rail rail_electric rail_fast ship" width="3.65"/>
  <type id="border" priority="0" speed="1.39" disallow="all" discard="1" width="0.10"/>
  <type id="driving" priority="1" speed="13.89" disallow="pedestrian tram rail_urban rail rail_electric rail_fast ship" width="3.65"/>
  <type id="entry" priority="1" speed="22.22" disallow="pedestrian tram rail_urban rail rail_electric rail_fast ship" width="3.65"/>
  <type id="exit" priority="1" speed="22.22" disallow="pedestrian tram rail_urban rail rail_electric rail_fast ship" width="3.65"/>
  <type id="median" priority="0" speed="1.39" disallow="all" discard="1" width="0.10"/>
  <type id="mwyEntry" priority="1" speed="22.22" allow="private emergency authority army vip passenger hov taxi bus coach delivery truck trailer motorcycle evehicle custom1 custom2" width="3.65"/>
  <type id="mwyExit" priority="1" speed="22.22" allow="private emergency authority army vip passenger hov taxi bus coach delivery truck trailer motorcycle evehicle custom1 custom2" width="3.65"/>
  <type id="none" priority="0" speed="1.39" disallow="all" discard="1" width="1.00"/>
  <type id="offRamp" priority="1" speed="22.22" allow="private emergency authority army vip passenger hov taxi bus coach delivery truck trailer motorcycle evehicle custom1 custom2" width="3.65"/>
  <type id="onRamp" priority="1" speed="22.22" allow="private emergency authority army vip passenger hov taxi bus coach delivery truck trailer motorcycle evehicle custom1 custom2" width="3.65"/>
  <type id="parking" priority="1" speed="1.39" disallow="pedestrian tram rail_urban rail rail_electric rail_fast ship" width="2.50"/>
  <type id="rail" priority="3" speed="33.33" allow="rail_urban rail rail_electric rail_fast" width="3.65"/>
  <type id="restricted" priority="0" speed="13.89" disallow="all" width="3.65"/>
  <type id="roadWorks" priority="0" speed="1.39" allow="authority" width="3.65"/>
  <type id="shoulder" priority="0" speed="1.39" disallow="all" discard="1" width="1.00"/>
  <type id="special1" priority="1" speed="22.22" allow="custom1" discard="1" width="3.65"/>
  <type id="special2" priority="1" speed="22.22" allow="custom2" discard="1" width="3.65"/>
  <type id="special3" priority="1" speed="22.22" allow="custom1 custom2" discard="1" width="3.65"/>
  <type id="stop" priority="1" speed="13.89" disallow="pedestrian tram rail_urban rail rail_electric rail_fast ship" width="3.65"/>
  <type id="tram" priority="2" speed="13.89" allow="tram" width="3.65"/>
  <edge id=":0_0" function="internal">
    <lane id=":0_0_0" index="0" disallow="pedestrian tram rail_urban rail rail_electric rail_fast ship" speed="20.83" length="53.87" width="3.75" shape="1160.86,273.87 1149.20,281.67 1135.73,291.44 1123.95,300.36 1117.36,305.60"/>
  </edge>
  <edge id=":0_1" function="internal">
    <lane id=":0_1_0" index="0" disallow="pedestrian tram rail_urban rail rail_electric rail_fast ship" speed="22.22" length="54.03" width="3.75" shape="1160.86,273.87 1114.78,302.07"/>
    <lane id=":0_1_1" index="1" disallow="pedestrian tram rail_urban rail rail_electric rail_fast ship" speed="22.22" length="54.03" width="3.75" shape="1158.90,270.67 1112.82,298.87"/>
    <lane id=":0_1_2" index="2" disallow="pedestrian tram rail_urban rail rail_electric rail_fast ship" speed="22.22" length="54.03" width="3.75" shape="1156.95,267.47 1110.86,295.67"/>
  </edge>
  <edge id=":1_0" function="internal">
    <lane id=":1_0_0" index="0" disallow="pedestrian tram rail_urban rail rail_electric rail_fast ship" speed="18.06" length="81.94" width="3.75" shape="279.66,870.69 292.72,857.69 311.05,838.84 327.94,821.21 336.69,811.87"/>
  </edge>
  <edge id=":1_1" function="internal">
    <lane id=":1_1_0" index="0" disallow="pedestrian tram rail_urban rail rail_electric rail_fast ship" speed="22.22" length="82.13" width="3.75" shape="279.66,870.69 339.80,814.70"/>
    <lane id=":1_1_1" index="1" disallow="pedestrian tram rail_urban rail rail_electric rail_fast ship" speed="22.22" length="82.13" width="3.75" shape="282.23,873.42 342.34,817.46"/>
    <lane id=":1_1_2" index="2" disallow="pedestrian tram rail_urban rail rail_electric rail_fast ship" speed="22.22" length="82.13" width="3.75" shape="284.80,876.15 344.88,820.22"/>
  </edge>
  <edge id=":10_0" function="internal">
    <lane id=":10_0_0" index="0" disallow="pedestrian tram rail_urban rail rail_electric rail_fast ship" speed="20.83" length="105.37" width="3.75" shape="936.67,880.18,20.00 945.35,894.17,20.00 962.70,921.62,20.00 981.20,950.56,20.00 993.30,969.03,20.00"/>
  </edge>
  <edge id=":10_1" function="internal">
    <lane id=":10_1_0" index="0" disallow="pedestrian tram rail_urban rail rail_electric rail_fast ship" speed="22.22" length="105.11" width="3.75" shape="933.34,882.68,20.00 993.30,969.03,20.00"/>
    <lane id=":10_1_1" index="1" disallow="pedestrian tram rail_urban rail rail_electric rail_fast ship" speed="22.22" length="105.11" width="3.75" shape="930.27,884.83,20.00 990.21,971.17,20.00"/>
    <lane id=":10_1_2" index="2" disallow="pedestrian tram rail_urban rail rail_electric rail_fast ship" speed="22.22" length="105.11" width="3.75" shape="927.19,886.97,20.00 987.13,973.30,20.00"/>
  </edge>
  <edge id=":11_0" function="internal">
    <lane id=":11_0_0" index="0" disallow="pedestrian tram rail_urban rail rail_electric rail_fast ship" speed="19.44" length="20.15" width="3.75" shape="957.72,538.63,7.86 949.77,557.15,7.91"/>
  </edge>
  <edge id=":11_1" function="internal">
    <lane id=":11_1_0" index="0" disallow="pedestrian tram rail_urban rail rail_electric rail_fast ship" speed="15.28" length="21.31" width="3.75" shape="957.72,538.63,7.86 955.42,542.77,7.87 952.07,547.65,7.89 948.39,552.30,7.91 945.12,555.71,7.92"/>
  </edge>
  <edge id=":11.10_0" function="internal">
    <lane id=":11.10_0_0" index="0" disallow="pedestrian tram rail_urban rail rail_electric rail_fast ship" speed="22.22" length="0.30" width="3.75" shape="734.54,610.36,20.00 734.73,610.59,20.00"/>
    <lane id=":11.10_0_1" index="1" disallow="pedestrian tram rail_urban rail rail_electric rail_fast ship" speed="22.22" length="0.30" width="3.75" shape="731.63,612.71,20.00 731.81,612.95,20.00"/>
    <lane id=":11.10_0_2" index="2" disallow="pedestrian tram rail_urban rail rail_electric rail_fast ship" speed="22.22" length="0.30" width="3.75" shape="728.71,615.07,20.00 728.90,615.30,20.00"/>
  </edge>
  <edge id=":12_0" function="internal">
    <lane id=":12_0_0" index="0" disallow="pedestrian tram rail_urban rail rail_electric rail_fast ship" speed="19.44" length="16.92" width="3.75" shape="898.75,731.08,14.60 898.16,735.09,14.61 897.60,739.47,14.62 897.13,743.85,14.64 896.79,747.89,14.65"/>
  </edge>
  <edge id=":12_1" function="internal">
    <lane id=":12_1_0" index="0" disallow="pedestrian tram rail_urban rail rail_electric rail_fast ship" speed="18.06" length="16.33" width="3.75" shape="894.34,731.86,14.58 895.56,735.61,14.60 896.39,739.74,14.61 896.81,743.93,14.63 896.79,747.89,14.65"/>
  </edge>
  <edge id=":13_0" function="internal">
    <lane id=":13_0_0" index="0" disallow="pedestrian tram rail_urban rail rail_electric rail_fast ship" speed="13.89" length="44.26" width="3.75" shape="419.88,400.07,14.15 403.73,358.86,14.20"/>
  </edge>
  <edge id=":13_1" function="internal">
    <lane id=":13_1_0" index="0" disallow="pedestrian tram rail_urban rail rail_electric rail_fast ship" speed="12.50" length="44.00" width="3.75" shape="423.45,398.19,14.08 419.56,390.88,14.10 413.36,378.64,14.14 407.27,366.35,14.18 403.73,358.86,14.20"/>
  </edge>
  <edge id=":14_0" function="internal">
    <lane id=":14_0_0" index="0" disallow="pedestrian tram rail_urban rail rail_electric rail_fast ship" speed="13.89" length="32.46" width="3.75" shape="552.75,815.20,4.95 520.38,817.63,4.91"/>
  </edge>
  <edge id=":14_1" function="internal">
    <lane id=":14_1_0" index="0" disallow="pedestrian tram rail_urban rail rail_electric rail_fast ship" speed="16.67" length="32.18" width="3.75" shape="551.89,811.18,5.02 545.67,812.80,5.00 536.23,814.84,4.97 526.74,816.66,4.93 520.38,817.63,4.91"/>
  </edge>
  <edge id=":15_0" function="internal">
    <lane id=":15_0_0" index="0" disallow="pedestrian tram rail_urban rail rail_electric rail_fast ship" speed="20.83" length="73.54" width="3.75" shape="500.77,669.76,0.10 561.62,628.46"/>
  </edge>
  <edge id=":15_1" function="internal">
    <lane id=":15_1_0" index="0" disallow="pedestrian tram rail_urban rail rail_electric rail_fast ship" speed="22.22" length="73.13" width="3.75" shape="503.45,673.05 561.62,628.46"/>
    <lane id=":15_1_1" index="1" disallow="pedestrian tram rail_urban rail rail_electric rail_fast ship" speed="22.22" length="73.13" width="3.75" shape="505.79,675.98 563.83,631.49"/>
    <lane id=":15_1_2" index="2" disallow="pedestrian tram rail_urban rail rail_electric rail_fast ship" speed="22.22" length="73.13" width="3.75" shape="508.13,678.91 566.04,634.52"/>
  </edge>
  <edge id=":15.14_0" function="internal">
    <lane id=":15.14_0_0" index="0" disallow="pedestrian tram rail_urban rail rail_electric rail_fast ship" speed="22.22" length="0.30" width="3.75" shape="717.03,624.88,20.00 716.85,624.65,20.00"/>
    <lane id=":15.14_0_1" index="1" disallow="pedestrian tram rail_urban rail rail_electric rail_fast ship" speed="22.22" length="0.30" width="3.75" shape="719.95,622.53,20.00 719.76,622.30,20.00"/>
    <lane id=":15.14_0_2" index="2" disallow="pedestrian tram rail_urban rail rail_electric rail_fast ship" speed="22.22" length="0.30" width="3.75" shape="722.87,620.17,20.00 722.68,619.94,20.00"/>
  </edge>
  <edge id=":19.18_0" function="internal">
    <lane id=":19.18_0_0" index="0" disallow="pedestrian tram rail_urban rail rail_electric rail_fast ship" speed="13.89" length="0.30" width="3.75" shape="761.36,828.21,10.03 761.08,828.12,10.02"/>
  </edge>
  <edge id=":2_0" function="internal">
    <lane id=":2_0_0" index="0" disallow="pedestrian tram rail_urban rail rail_electric rail_fast ship" speed="15.28" length="120.69" width="3.75" shape="310.38,146.48,20.00 396.25,231.27,20.00"/>
  </edge>
  <edge id=":2_1" function="internal">
    <lane id=":2_1_0" index="0" disallow="pedestrian tram rail_urban rail rail_electric rail_fast ship" speed="22.22" length="120.78" width="3.75" shape="310.38,146.48,20.00 393.44,234.18,20.00"/>
    <lane id=":2_1_1" index="1" disallow="pedestrian tram rail_urban rail rail_electric rail_fast ship" speed="22.22" length="120.78" width="3.75" shape="307.66,149.06,20.00 390.72,236.75,20.00"/>
    <lane id=":2_1_2" index="2" disallow="pedestrian tram rail_urban rail rail_electric rail_fast ship" speed="22.22" length="120.78" width="3.75" shape="304.94,151.64,20.00 387.99,239.32,20.00"/>
  </edge>
  <edge id=":2.1_0" function="internal">
    <lane id=":2.1_0_0" index="0" disallow="pedestrian tram rail_urban rail rail_electric rail_fast ship" speed="22.22" length="0.30" width="3.75" shape="578.27,644.47 578.03,644.65"/>
    <lane id=":2.1_0_1" index="1" disallow="pedestrian tram rail_urban rail rail_electric rail_fast ship" speed="22.22" length="0.30" width="3.75" shape="576.07,641.44 575.83,641.62"/>
    <lane id=":2.1_0_2" index="2" disallow="pedestrian tram rail_urban rail rail_electric rail_fast ship" speed="22.22" length="0.30" width="3.75" shape="573.86,638.41 573.62,638.58"/>
  </edge>
  <edge id=":23.22_0" function="internal">
    <lane id=":23.22_0_0" index="0" disallow="pedestrian tram rail_urban rail rail_electric rail_fast ship" speed="13.89" length="0.30" width="3.75" shape="445.06,505.44,9.97 445.05,505.14,9.98"/>
  </edge>
  <edge id=":27.26_0" function="internal">
    <lane id=":27.26_0_0" index="0" disallow="pedestrian tram rail_urban rail rail_electric rail_fast ship" speed="8.33" length="0.29" width="3.75" shape="682.45,396.42,10.09 682.74,396.46,10.08"/>
  </edge>
  <edge id=":3_0" function="internal">
    <lane id=":3_0_0" index="0" disallow="pedestrian tram rail_urban rail rail_electric rail_fast ship" speed="18.06" length="123.81" width="3.75" shape="1090.51,1151.03,20.00 1017.34,1051.15,20.00"/>
  </edge>
  <edge id=":3_1" function="internal">
    <lane id=":3_1_0" index="0" disallow="pedestrian tram rail_urban rail rail_electric rail_fast ship" speed="22.22" length="123.87" width="3.75" shape="1090.51,1151.03,20.00 1020.59,1048.79,20.00"/>
    <lane id=":3_1_1" index="1" disallow="pedestrian tram rail_urban rail rail_electric rail_fast ship" speed="22.22" length="123.87" width="3.75" shape="1093.61,1148.92,20.00 1023.68,1046.67,20.00"/>
    <lane id=":3_1_2" index="2" disallow="pedestrian tram rail_urban rail rail_electric rail_fast ship" speed="22.22" length="123.87" width="3.75" shape="1096.70,1146.80,20.00 1026.78,1044.55,20.00"/>
  </edge>
  <edge id=":30.29_0" function="internal">
    <lane id=":30.29_0_0" index="0" disallow="pedestrian tram rail_urban rail rail_electric rail_fast ship" speed="19.44" length="0.30" width="3.75" shape="921.31,640.93,11.15 921.24,641.23,11.16"/>
  </edge>
  <edge id=":33.32_0" function="internal">
    <lane id=":33.32_0_0" index="0" disallow="pedestrian tram rail_urban rail rail_electric rail_fast ship" speed="16.67" length="0.30" width="3.75" shape="703.58,623.44,11.18 703.87,623.51,11.19"/>
  </edge>
  <edge id=":35.34_0" function="internal">
    <lane id=":35.34_0_0" index="0" disallow="pedestrian tram rail_urban rail rail_electric rail_fast ship" speed="11.11" length="0.30" width="3.75" shape="653.05,572.71,10.94 652.77,572.62,10.94"/>
  </edge>
  <edge id=":37.36_0" function="internal">
    <lane id=":37.36_0_0" index="0" disallow="pedestrian tram rail_urban rail rail_electric rail_fast ship" speed="19.44" length="0.30" width="3.75" shape="694.18,595.23,9.87 694.17,595.53,9.86"/>
  </edge>
  <edge id=":39.38_0" function="internal">
    <lane id=":39.38_0_0" index="0" disallow="pedestrian tram rail_urban rail rail_electric rail_fast ship" speed="19.44" length="0.30" width="3.75" shape="58.79,368.54,11.18 58.61,368.78,11.17"/>
  </edge>
  <edge id=":4_0" function="internal">
    <lane id=":4_0_0" index="0" disallow="pedestrian tram rail_urban rail rail_electric rail_fast ship" speed="20.83" length="126.49" width="3.75" shape="645.96,541.57,20.00 628.59,523.06,20.00 599.78,493.04,20.00 572.16,464.48,20.00 558.33,450.36,20.00"/>
  </edge>
  <edge id=":4_1" function="internal">
    <lane id=":4_1_0" index="0" disallow="pedestrian tram rail_urban rail rail_electric rail_fast ship" speed="22.22" length="126.48" width="3.75" shape="645.96,541.57,20.00 561.33,447.67,20.00"/>
    <lane id=":4_1_1" index="1" disallow="pedestrian tram rail_urban rail rail_electric rail_fast ship" speed="22.22" length="126.48" width="3.75" shape="648.77,539.09,20.00 564.10,445.14,20.00"/>
    <lane id=":4_1_2" index="2" disallow="pedestrian tram rail_urban rail rail_electric rail_fast ship" speed="22.22" length="126.48" width="3.75" shape="651.58,536.61,20.00 566.86,442.61,20.00"/>
  </edge>
  <edge id=":5_0" function="internal">
    <lane id=":5_0_0" index="0" disallow="pedestrian tram rail_urban rail rail_electric rail_fast ship" speed="18.06" length="33.76" width="3.75" shape="333.35,858.49,0.15 328.65,860.94,0.13 321.88,864.97,0.09 313.90,870.51,0.05 305.58,877.50"/>
  </edge>
  <edge id=":5_1" function="internal">
    <lane id=":5_1_0" index="0" disallow="pedestrian tram rail_urban rail rail_electric rail_fast ship" speed="22.22" length="32.96" width="3.75" shape="329.65,855.02 305.58,877.50"/>
    <lane id=":5_1_1" index="1" disallow="pedestrian tram rail_urban rail rail_electric rail_fast ship" speed="22.22" length="32.96" width="3.75" shape="327.10,852.27 303.02,874.77"/>
    <lane id=":5_1_2" index="2" disallow="pedestrian tram rail_urban rail rail_electric rail_fast ship" speed="22.22" length="32.96" width="3.75" shape="324.54,849.53 300.45,872.03"/>
  </edge>
  <edge id=":6_0" function="internal">
    <lane id=":6_0_0" index="0" disallow="pedestrian tram rail_urban rail rail_electric rail_fast ship" speed="18.06" length="62.10" width="3.75" shape="306.51,181.70,20.00 300.55,174.03,20.00 289.52,160.31,20.00 277.11,145.31,20.00 266.98,133.82,20.00"/>
  </edge>
  <edge id=":6_1" function="internal">
    <lane id=":6_1_0" index="0" disallow="pedestrian tram rail_urban rail rail_electric rail_fast ship" speed="22.22" length="61.74" width="3.75" shape="309.50,178.58,20.00 266.98,133.82,20.00"/>
    <lane id=":6_1_1" index="1" disallow="pedestrian tram rail_urban rail rail_electric rail_fast ship" speed="22.22" length="61.74" width="3.75" shape="312.22,175.99,20.00 269.70,131.23,20.00"/>
    <lane id=":6_1_2" index="2" disallow="pedestrian tram rail_urban rail rail_electric rail_fast ship" speed="22.22" length="61.74" width="3.75" shape="314.94,173.41,20.00 272.42,128.65,20.00"/>
  </edge>
  <edge id=":7_0" function="internal">
    <lane id=":7_0_0" index="0" disallow="pedestrian tram rail_urban rail rail_electric rail_fast ship" speed="13.89" length="15.22" width="3.75" shape="432.81,629.82,7.11 436.04,614.94,7.15"/>
  </edge>
  <edge id=":7_1" function="internal">
    <lane id=":7_1_0" index="0" disallow="pedestrian tram rail_urban rail rail_electric rail_fast ship" speed="15.28" length="16.91" width="3.75" shape="432.81,629.82,7.11 434.13,626.00,7.12 436.20,622.10,7.14 438.78,618.52,7.15 441.62,615.65,7.17"/>
  </edge>
  <edge id=":7.6_0" function="internal">
    <lane id=":7.6_0_0" index="0" disallow="pedestrian tram rail_urban rail rail_electric rail_fast ship" speed="22.22" length="0.30" width="3.75" shape="564.65,626.25 564.89,626.07"/>
    <lane id=":7.6_0_1" index="1" disallow="pedestrian tram rail_urban rail rail_electric rail_fast ship" speed="22.22" length="0.30" width="3.75" shape="566.86,629.28 567.10,629.11"/>
    <lane id=":7.6_0_2" index="2" disallow="pedestrian tram rail_urban rail rail_electric rail_fast ship" speed="22.22" length="0.30" width="3.75" shape="569.06,632.31 569.30,632.14"/>
  </edge>
  <edge id=":8_0" function="internal">
    <lane id=":8_0_0" index="0" disallow="pedestrian tram rail_urban rail rail_electric rail_fast ship" speed="15.28" length="49.67" width="3.75" shape="1081.15,290.84,0.15 1088.24,287.67,0.13 1100.31,282.02,0.09 1113.92,275.25,0.04 1125.62,268.78"/>
  </edge>
  <edge id=":8_1" function="internal">
    <lane id=":8_1_0" index="0" disallow="pedestrian tram rail_urban rail rail_electric rail_fast ship" speed="22.22" length="49.23" width="3.75" shape="1083.63,294.48 1125.62,268.78"/>
    <lane id=":8_1_1" index="1" disallow="pedestrian tram rail_urban rail rail_electric rail_fast ship" speed="22.22" length="49.23" width="3.75" shape="1085.59,297.68 1127.58,271.97"/>
    <lane id=":8_1_2" index="2" disallow="pedestrian tram rail_urban rail rail_electric rail_fast ship" speed="22.22" length="49.23" width="3.75" shape="1087.55,300.87 1129.53,275.17"/>
  </edge>
  <edge id=":9_0" function="internal">
    <lane id=":9_0_0" index="0" disallow="pedestrian tram rail_urban rail rail_electric rail_fast ship" speed="8.33" length="3.00" width="3.75" shape="535.35,338.48,15.02 537.91,340.04,14.93"/>
  </edge>
  <edge id=":9_1" function="internal">
    <lane id=":9_1_0" index="0" disallow="pedestrian tram rail_urban rail rail_electric rail_fast ship" speed="13.89" length="3.00" width="3.75" shape="535.35,338.48,15.02 537.91,340.04,14.97"/>
  </edge>
  <edge id="-0" from="0.begin" to="0" priority="1" type="driving" shape="1258.25,202.87 1257.32,203.46 1256.36,204.07 1255.37,204.69 1254.36,205.33 1253.31,205.98 1252.25,206.65 1251.15,207.34 1250.03,208.04 1248.88,208.76 1247.71,209.49 1246.51,210.24 1245.28,211.00 1244.03,211.78 1242.75,212.58 1241.44,213.39 1240.12,214.21 1238.76,215.05 1237.38,215.90 1235.98,216.77 1234.55,217.66 1233.10,218.55 1231.62,219.46 1230.12,220.39 1228.60,221.33 1227.05,222.29 1225.48,223.25 1223.89,224.24 1222.27,225.23 1220.63,226.24 1218.97,227.26 1217.28,228.30 1215.58,229.35 1213.85,230.41 1212.09,231.49 1210.32,232.58 1208.53,233.68 1206.71,234.80 1204.87,235.92 1203.01,237.06 1201.13,238.22 1199.23,239.38 1197.31,240.56 1195.37,241.75 1193.41,242.95 1191.43,244.17 1189.43,245.39 1187.41,246.63 1185.37,247.88 1183.31,249.14 1181.23,250.41 1179.13,251.70 1177.01,252.99 1174.88,254.30 1172.73,255.62 1170.56,256.95 1168.37,258.29 1166.16,259.64 1163.93,261.00 1161.69,262.37 1159.43,263.75 1157.16,265.15 1154.86,266.55 1152.55,267.96">
    <lane id="-0_0" index="0" disallow="pedestrian tram rail_urban rail rail_electric rail_fast ship" speed="22.22" length="120.21" width="3.75" shape="1263.26,210.80 1262.32,211.39 1261.36,212.00 1260.37,212.62 1259.35,213.27 1258.30,213.92 1257.23,214.60 1256.12,215.29 1255.00,215.99 1253.85,216.71 1252.67,217.45 1251.46,218.20 1250.23,218.96 1248.98,219.74 1247.69,220.54 1246.39,221.35 1245.06,222.18 1243.70,223.02 1242.32,223.87 1240.91,224.74 1239.48,225.63 1238.03,226.53 1236.55,227.44 1235.05,228.37 1233.52,229.31 1231.97,230.27 1230.40,231.23 1228.81,232.22 1227.19,233.21 1225.55,234.23 1223.88,235.25 1222.19,236.29 1220.49,237.34 1218.75,238.40 1217.00,239.48 1215.23,240.57 1213.43,241.67 1211.61,242.79 1209.78,243.92 1207.92,245.06 1206.04,246.21 1204.13,247.38 1202.21,248.55 1200.27,249.74 1198.31,250.95 1196.33,252.16 1194.32,253.39 1192.30,254.63 1190.26,255.88 1188.20,257.14 1186.12,258.41 1184.03,259.69 1181.91,260.99 1179.77,262.30 1177.62,263.62 1175.45,264.94 1173.26,266.28 1171.05,267.64 1168.83,269.00 1166.58,270.37 1164.32,271.75 1162.05,273.14 1160.86,273.87" type="driving"/>
    <lane id="-0_1" index="1" disallow="pedestrian tram rail_urban rail rail_electric rail_fast ship" speed="22.22" length="120.21" width="3.75" shape="1261.26,207.63 1260.32,208.22 1259.36,208.83 1258.37,209.45 1257.35,210.09 1256.31,210.75 1255.23,211.42 1254.14,212.11 1253.01,212.81 1251.86,213.53 1250.68,214.26 1249.48,215.01 1248.25,215.78 1247.00,216.56 1245.72,217.36 1244.41,218.17 1243.08,218.99 1241.73,219.83 1240.34,220.69 1238.94,221.56 1237.51,222.44 1236.06,223.34 1234.58,224.25 1233.08,225.18 1231.55,226.12 1230.01,227.07 1228.43,228.04 1226.84,229.03 1225.22,230.02 1223.58,231.03 1221.92,232.06 1220.23,233.09 1218.52,234.14 1216.79,235.21 1215.04,236.28 1213.27,237.37 1211.47,238.48 1209.65,239.59 1207.81,240.72 1205.95,241.86 1204.07,243.01 1202.17,244.18 1200.25,245.36 1198.31,246.55 1196.35,247.75 1194.37,248.96 1192.37,250.19 1190.34,251.43 1188.30,252.68 1186.24,253.94 1184.17,255.21 1182.07,256.50 1179.95,257.79 1177.82,259.10 1175.66,260.42 1173.49,261.75 1171.30,263.09 1169.09,264.44 1166.87,265.80 1164.63,267.17 1162.37,268.55 1160.09,269.95 1158.90,270.67" type="driving"/>
    <lane id="-0_2" index="2" disallow="pedestrian tram rail_urban rail rail_electric rail_fast ship" speed="22.22" length="120.21" width="3.75" shape="1259.25,204.46 1258.32,205.05 1257.36,205.65 1256.37,206.28 1255.35,206.92 1254.31,207.57 1253.24,208.24 1252.15,208.93 1251.02,209.63 1249.87,210.35 1248.70,211.08 1247.50,211.83 1246.27,212.60 1245.02,213.38 1243.74,214.17 1242.43,214.98 1241.10,215.80 1239.75,216.64 1238.37,217.50 1236.97,218.37 1235.54,219.25 1234.09,220.15 1232.61,221.06 1231.11,221.99 1229.59,222.93 1228.04,223.88 1226.47,224.85 1224.87,225.83 1223.25,226.83 1221.61,227.84 1219.95,228.86 1218.27,229.90 1216.56,230.95 1214.83,232.01 1213.08,233.09 1211.30,234.18 1209.51,235.28 1207.69,236.39 1205.85,237.52 1203.99,238.66 1202.11,239.82 1200.21,240.98 1198.29,242.16 1196.35,243.35 1194.39,244.55 1192.41,245.77 1190.41,246.99 1188.39,248.23 1186.35,249.48 1184.29,250.74 1182.21,252.01 1180.11,253.30 1177.99,254.59 1175.86,255.90 1173.71,257.22 1171.53,258.55 1169.34,259.89 1167.14,261.24 1164.91,262.60 1162.67,263.97 1160.41,265.35 1158.13,266.75 1156.95,267.47" type="driving"/>
  </edge>
  <edge id="-1" from="0" to="2.1" priority="1" type="driving" shape="1152.55,267.96 1151.11,268.84 1149.66,269.73 1148.21,270.62 1146.75,271.51 1145.29,272.41 1143.82,273.31 1142.34,274.21 1140.86,275.12 1139.37,276.03 1137.87,276.95 1136.37,277.86 1134.86,278.79 1133.35,279.71 1131.83,280.64 1130.30,281.57 1128.77,282.51 1127.24,283.45 1125.70,284.39 1124.15,285.34 1122.60,286.29 1121.04,287.24 1119.47,288.20 1117.90,289.16 1116.33,290.13 1114.75,291.09 1113.16,292.06 1111.57,293.04 1109.98,294.01 1108.38,294.99 1106.77,295.98 1105.16,296.96 1103.54,297.95 1101.92,298.95 1100.29,299.94 1098.66,300.94 1097.03,301.94 1095.39,302.95 1093.74,303.96 1092.09,304.97 1090.44,305.98 1088.78,307.00 1087.11,308.02 1085.44,309.04 1083.77,310.06 1082.09,311.09 1080.41,312.12 1078.72,313.16 1077.03,314.19 1075.34,315.23 1073.64,316.27 1071.93,317.32 1070.23,318.37 1068.51,319.42 1066.80,320.47 1065.08,321.52 1063.35,322.58 1061.63,323.64 1059.89,324.70 1058.16,325.77 1056.42,326.84 1054.67,327.91 1052.93,328.98 1051.18,330.05 1049.42,331.13 1047.66,332.21 1045.90,333.29 1044.14,334.38 1042.37,335.46 1040.60,336.55 1038.82,337.64 1037.04,338.74 1035.26,339.83 1033.47,340.93 1031.68,342.03 1029.89,343.13 1028.10,344.23 1026.30,345.34 1024.50,346.45 1022.69,347.56 1020.88,348.67 1019.07,349.78 1017.26,350.90 1015.44,352.02 1013.63,353.14 1011.80,354.26 1009.98,355.38 1008.15,356.51 1006.32,357.63 1004.49,358.76 1002.66,359.89 1000.82,361.02 998.98,362.16 997.14,363.29 995.29,364.43 993.45,365.57 991.60,366.71 989.74,367.85 987.89,369.00 986.04,370.14 984.18,371.29 982.32,372.43 980.46,373.58 978.59,374.74 976.73,375.89 974.86,377.04 972.99,378.20 971.12,379.35 969.24,380.51 967.37,381.67 965.49,382.83 963.61,383.99 961.73,385.15 959.85,386.32 957.97,387.48 956.08,388.65 954.20,389.82 952.31,390.98 950.42,392.15 948.53,393.32 946.64,394.50 944.75,395.67 942.85,396.84 940.96,398.02 939.06,399.19 937.17,400.37 935.27,401.54 933.37,402.72 931.47,403.90 929.57,405.08 927.67,406.26 925.77,407.44 923.86,408.62 921.96,409.81 920.05,410.99 918.15,412.17 916.24,413.36 914.34,414.54 912.43,415.73 910.52,416.92 908.62,418.10 906.71,419.29 904.80,420.48 902.89,421.67 900.98,422.85 899.07,424.04 897.17,425.23 895.26,426.42 893.35,427.61 891.44,428.80 889.53,430.00 887.62,431.19 885.71,432.38 883.80,433.57 881.89,434.76 879.99,435.95 878.08,437.15 876.17,438.34 874.26,439.53 872.36,440.72 870.45,441.92 868.54,443.11 866.64,444.30 864.73,445.49 862.83,446.69 860.92,447.88 859.02,449.07 857.12,450.26 855.22,451.46 853.32,452.65 851.42,453.84 849.52,455.03 847.62,456.22 845.72,457.41 843.83,458.61 841.93,459.80 840.04,460.99 838.15,462.18 836.26,463.37 834.37,464.55 832.48,465.74 830.59,466.93 828.71,468.12 826.82,469.31 824.94,470.49 823.06,471.68 821.18,472.87 819.30,474.05 817.42,475.24 815.55,476.42 813.68,477.60 811.81,478.78 809.94,479.97 808.07,481.15 806.20,482.33 804.34,483.51 802.48,484.69 800.62,485.86 798.76,487.04 796.91,488.22 795.05,489.39 793.20,490.57 791.35,491.74 789.51,492.91 787.66,494.08 785.82,495.25 783.98,496.42 782.15,497.59 780.31,498.76 778.48,499.93 776.65,501.09 774.82,502.25 773.00,503.42 771.18,504.58 769.36,505.74 767.55,506.90 765.73,508.05 763.92,509.21 762.12,510.37 760.31,511.52 758.51,512.67 756.71,513.82 754.92,514.97 753.13,516.12 751.34,517.27 749.55,518.41 747.77,519.55 745.99,520.69 744.22,521.84 742.45,522.97 740.68,524.11 738.92,525.25 737.15,526.38 735.40,527.51 733.64,528.64 731.89,529.77 730.15,530.90 728.40,532.02 726.66,533.15 724.93,534.27 723.20,535.39 721.47,536.50 719.75,537.62 718.03,538.73 716.31,539.84 714.60,540.95 712.89,542.06 711.19,543.17 709.49,544.27 707.80,545.37 706.11,546.47 704.42,547.57 702.74,548.66 701.07,549.76 699.39,550.85 697.73,551.94 696.06,553.02 694.40,554.11 692.75,555.19 691.10,556.27 689.46,557.35 687.82,558.42 686.18,559.49 684.55,560.56 682.93,561.63 681.31,562.69 679.69,563.76 678.08,564.82 676.48,565.87 674.88,566.93 673.28,567.98 671.69,569.03 670.11,570.08 668.53,571.12 666.96,572.16 665.39,573.20 663.82,574.24 662.27,575.27 660.71,576.30 659.17,577.33 657.63,578.36 656.09,579.38 654.56,580.40 653.04,581.41 651.52,582.43 650.01,583.44 648.50,584.45 647.00,585.45 645.51,586.45 644.02,587.45 642.54,588.45 641.06,589.44 639.59,590.43 638.13,591.41 636.67,592.40 635.22,593.38 633.77,594.35 632.34,595.33 630.90,596.30 629.48,597.26 628.06,598.23 626.64,599.19 625.24,600.14 623.84,601.10 622.44,602.05 621.06,602.99 619.68,603.94 618.30,604.88 616.94,605.81 615.58,606.74 614.23,607.67 612.88,608.60 611.54,609.52 610.21,610.44 608.88,611.35 607.57,612.27 606.26,613.17 604.95,614.08 603.66,614.98 602.37,615.87 601.09,616.76 599.81,617.65 598.55,618.54 597.29,619.42 596.04,620.29 594.79,621.17 593.55,622.04 592.33,622.90 591.10,623.76 589.89,624.62 588.68,625.47 587.49,626.32 586.30,627.17 585.11,628.01 583.94,628.84 582.77,629.68 581.61,630.50 580.46,631.33 579.32,632.15 578.19,632.96 577.06,633.78 575.94,634.58 574.83,635.39 573.73,636.18 572.64,636.98">