<?xml version="1.0" encoding="UTF-8"?>
<!--generated on 2022-09-06 02:36:01 by generate_rou.py-->
<routes xmlns:xsi="http://www.w3.org/2001/XMLSchema-instance" xsi:noNamespaceSchemaLocation="http://sumo.dlr.de/xsd/routes_file.xsd">
    <vTypeDistribution id="fastlane">
        <vType accel="3.000000" decel="3.000000" emergencyDecel="15" id="fast1" laneChangeModel="SL2015" lcAccelLat="0.5" lcCooperative="1" lcPushy="0" lcSigma="0.1" lcTimeToImpatience="1.2" length="4.3" maxSpeed="30.00" maxSpeedLat="1" minGap="2.5" minGapLat="1" sigma="0" speedFactor="normc(1,0.1,0.30,3.00)" tau="5" vClass="passenger" width="2.2"/>
        <vType accel="5.000000" decel="5.000000" emergencyDecel="15" id="fast2" laneChangeModel="SL2015" lcAccelLat="0.5" lcCooperative="1" lcPushy="0" lcSigma="0.2" lcTimeToImpatience="1.2" length="4.3" maxSpeed="33.0000" maxSpeedLat="1" minGap="2.5" minGapLat="1" sigma="0" speedFactor="normc(1,0.1,0.30,3.0)" tau="5" vClass="passenger" width="2.2"/>
    </vTypeDistribution>
    <vTypeDistribution id="middlelane">
        <vType accel="5.000000" decel="5.000000" emergencyDecel="15" id="middle_backup" laneChangeModel="SL2015" lcAccelLat="0.5" lcCooperative="1" lcPushy="0" lcSigma="0.2" lcTimeToImpatience="1.2" length="4.3" maxSpeed="26.00" maxSpeedLat="1" minGap="2.5" minGapLat="1" sigma="0" speedFactor="normc(1,0.1,0.30,2.00)" tau="5" vClass="passenger" width="2.2"/>
        <vType accel="5.000000" decel="5.000000" emergencyDecel="15" id="middle1" laneChangeModel="SL2015" lcCooperative="0" lcSpeedGain="0" length="4.3" maxSpeed="26.00" minGap="2.5" sigma="0" tau="5" vClass="passenger" width="2.2"/>
        <vType accel="5.000000" decel="5.000000" emergencyDecel="15" id="middle2" laneChangeModel="SL2015" lcAccelLat="0.5" lcCooperative="1" lcPushy="0" lcSigma="0" lcTimeToImpatience="1.2" length="9.6" maxSpeed="28.00" maxSpeedLat="1" minGap="2.5" minGapLat="1" sigma="0" speedFactor="normc(1,0.1,0.30,2.00)" tau="5" vClass="truck" width="3"/>
    </vTypeDistribution>
    <vTypeDistribution id="slowlane">
        <vType accel="5.000000" decel="5.000000" emergencyDecel="15" id="slow1" laneChangeModel="SL2015" lcAccelLat="0.5" lcCooperative="1" lcPushy="0" lcSigma="0.1" lcTimeToImpatience="1.2" length="4.3" maxSpeed="22.00" maxSpeedLat="1" minGap="2.0" minGapLat="1" sigma="0" speedFactor="normc(1,0.1,0.30,2.00)" tau="5" vClass="passenger" width="2.2"/>
        <vType accel="3.000000" decel="3.000000" emergencyDecel="15" id="slow2" laneChangeModel="SL2015" lcAccelLat="0.5" lcCooperative="1" lcPushy="0" lcSigma="0" lcTimeToImpatience="1.2" length="17.5" maxSpeed="20.00" maxSpeedLat="1" minGap="2.5" minGapLat="1" sigma="0" speedFactor="normc(1,0.1,0.20,3.00)" tau="5" vClass="truck" width="2.8"/>
    </vTypeDistribution>
    <flow begin="0" color="0.68,0.27,0.23" departLane="random" departPos="0" departSpeed="0" id="-10_-13" probability="0.05" type="middle1">
        <route edges="-10 -11 -12 -13"/>
    </flow>
    <flow begin="0" color="0.75,0.25,0.19" departLane="random" departPos="0" departSpeed="0" id="-10_-2" probability="0.05" type="middle1">
        <route edges="-10 -14 -15 -2"/>
    </flow>
    <flow begin="0" color="0.71,0.37,0.4" departLane="random" departPos="0" departSpeed="0" id="-3_-13" probability="0.05" type="middle1">
        <route edges="-3 -16 -17 -13"/>
    </flow>
    <flow begin="0" color="0.45,0.12,0.29" departLane="random" departPos="0" departSpeed="0" id="-3_-9" probability="0.05" type="middle1">
        <route edges="-3 -4 -5 -20 -21 -8 -9"/>
    </flow>
    <flow begin="0" color="0.65,0.66,0.34" departLane="random" departPos="0" departSpeed="0" id="-6_-2" probability="0.05" type="middle1">
        <route edges="-6 -18 -19 -0 -1 -2"/>
    </flow>
    <flow begin="0" color="0.05,0.95,0.56" departLane="random" departPos="0" departSpeed="0" id="-6_-9" probability="0.05" type="middle1">
        <route edges="-6 -7 -8 -9"/>
    </flow>
</routes>
