<?xml version='1.0' encoding='UTF-8'?>
<!-- generated on 2022-09-05 18:31:56 by Eclipse SUMO netconvert Version 1.13.0
<configuration xmlns:xsi="http://www.w3.org/2001/XMLSchema-instance" xsi:noNamespaceSchemaLocation="http://sumo.dlr.de/xsd/netconvertConfiguration.xsd">

    <input>
        <opendrive-files value="map\classification\14\74554674\74554674.xodr"/>
    </input>

    <output>
        <output-file value="C:\Users\LinGe\AppData\Local\Temp\tmpcrv5j9wi\74554674.net.xml"/>
    </output>

    <processing>
        <geometry.max-grade.fix value="false"/>
    </processing>

    <tls_building>
        <tls.left-green.time value="0"/>
    </tls_building>

    <junctions>
        <rectangular-lane-cut value="true"/>
    </junctions>

    <report>
        <aggregate-warnings value="5"/>
    </report>

</configuration>
-->
<net xmlns:xsi="http://www.w3.org/2001/XMLSchema-instance" version="1.9" junctionCornerDetail="5" rectangularLaneCut="true" limitTurnSpeed="5.50" xsi:noNamespaceSchemaLocation="http://sumo.dlr.de/xsd/net_file.xsd">
  <location netOffset="1.56,101.26" convBoundary="0.00,0.00,1102.73,1507.84" origBoundary="-1.56,-101.26,1101.18,1406.58" projParameter="!"/>
  <type id="bidirectional" priority="1" speed="1.39" disallow="pedestrian tram rail_urban rail rail_electric rail_fast ship" width="3.65"/>
  <type id="border" priority="0" speed="1.39" disallow="all" discard="1" width="0.10"/>
  <type id="driving" priority="1" speed="13.89" disallow="pedestrian tram rail_urban rail rail_electric rail_fast ship" width="3.65"/>
  <type id="entry" priority="1" speed="22.22" disallow="pedestrian tram rail_urban rail rail_electric rail_fast ship" width="3.65"/>
  <type id="exit" priority="1" speed="22.22" disallow="pedestrian tram rail_urban rail rail_electric rail_fast ship" width="3.65"/>
  <type id="median" priority="0" speed="1.39" disallow="all" discard="1" width="0.10"/>
  <type id="mwyEntry" priority="1" speed="22.22" allow="private emergency authority army vip passenger hov taxi bus coach delivery truck trailer motorcycle evehicle custom1 custom2" width="3.65"/>
  <type id="mwyExit" priority="1" speed="22.22" allow="private emergency authority army vip passenger hov taxi bus coach delivery truck trailer motorcycle evehicle custom1 custom2" width="3.65"/>
  <type id="none" priority="0" speed="1.39" disallow="all" discard="1" width="1.00"/>
  <type id="offRamp" priority="1" speed="22.22" allow="private emergency authority army vip passenger hov taxi bus coach delivery truck trailer motorcycle evehicle custom1 custom2" width="3.65"/>
  <type id="onRamp" priority="1" speed="22.22" allow="private emergency authority army vip passenger hov taxi bus coach delivery truck trailer motorcycle evehicle custom1 custom2" width="3.65"/>
  <type id="parking" priority="1" speed="1.39" disallow="pedestrian tram rail_urban rail rail_electric rail_fast ship" width="2.50"/>
  <type id="rail" priority="3" speed="33.33" allow="rail_urban rail rail_electric rail_fast" width="3.65"/>
  <type id="restricted" priority="0" speed="13.89" disallow="all" width="3.65"/>
  <type id="roadWorks" priority="0" speed="1.39" allow="authority" width="3.65"/>
  <type id="shoulder" priority="0" speed="1.39" disallow="all" discard="1" width="1.00"/>
  <type id="special1" priority="1" speed="22.22" allow="custom1" discard="1" width="3.65"/>
  <type id="special2" priority="1" speed="22.22" allow="custom2" discard="1" width="3.65"/>
  <type id="special3" priority="1" speed="22.22" allow="custom1 custom2" discard="1" width="3.65"/>
  <type id="stop" priority="1" speed="13.89" disallow="pedestrian tram rail_urban rail rail_electric rail_fast ship" width="3.65"/>
  <type id="tram" priority="2" speed="13.89" allow="tram" width="3.65"/>
  <edge id=":0_0" function="internal">
    <lane id=":0_0_0" index="0" disallow="pedestrian tram rail_urban rail rail_electric rail_fast ship" speed="22.22" length="144.72" width="3.75" shape="422.46,650.61 314.67,747.16"/>
  </edge>
  <edge id=":0_1" function="internal">
    <lane id=":0_1_0" index="0" disallow="pedestrian tram rail_urban rail rail_electric rail_fast ship" speed="22.22" length="144.69" width="3.75" shape="422.46,650.61 312.11,744.09"/>
    <lane id=":0_1_1" index="1" disallow="pedestrian tram rail_urban rail rail_electric rail_fast ship" speed="22.22" length="144.69" width="3.75" shape="420.07,647.72 309.67,741.25"/>
    <lane id=":0_1_2" index="2" disallow="pedestrian tram rail_urban rail rail_electric rail_fast ship" speed="22.22" length="144.69" width="3.75" shape="417.67,644.84 307.22,738.41"/>
  </edge>
  <edge id=":1_0" function="internal">
    <lane id=":1_0_0" index="0" disallow="pedestrian tram rail_urban rail rail_electric rail_fast ship" speed="19.44" length="42.39" width="3.75" shape="105.75,894.55 114.53,886.04,0.04 123.13,876.70,0.09 130.17,868.47,0.13 134.32,863.29,0.15"/>
  </edge>
  <edge id=":1_1" function="internal">
    <lane id=":1_1_0" index="0" disallow="pedestrian tram rail_urban rail rail_electric rail_fast ship" speed="22.22" length="42.57" width="3.75" shape="105.75,894.55 137.65,866.35"/>
    <lane id=":1_1_1" index="1" disallow="pedestrian tram rail_urban rail rail_electric rail_fast ship" speed="22.22" length="42.57" width="3.75" shape="108.24,897.36 140.13,869.16"/>
    <lane id=":1_1_2" index="2" disallow="pedestrian tram rail_urban rail rail_electric rail_fast ship" speed="22.22" length="42.57" width="3.75" shape="110.72,900.17 142.62,871.98"/>
  </edge>
  <edge id=":11.10_0" function="internal">
    <lane id=":11.10_0_0" index="0" disallow="pedestrian tram rail_urban rail rail_electric rail_fast ship" speed="22.22" length="0.30" width="3.75" shape="586.49,793.11,20.00 586.67,793.34,20.00"/>
    <lane id=":11.10_0_1" index="1" disallow="pedestrian tram rail_urban rail rail_electric rail_fast ship" speed="22.22" length="0.30" width="3.75" shape="583.57,795.46,20.00 583.76,795.70,20.00"/>
    <lane id=":11.10_0_2" index="2" disallow="pedestrian tram rail_urban rail rail_electric rail_fast ship" speed="22.22" length="0.30" width="3.75" shape="580.65,797.82,20.00 580.84,798.05,20.00"/>
  </edge>
  <edge id=":14.13_0" function="internal">
    <lane id=":14.13_0_0" index="0" disallow="pedestrian tram rail_urban rail rail_electric rail_fast ship" speed="22.22" length="0.30" width="3.75" shape="568.98,807.64,20.00 568.79,807.40,20.00"/>
    <lane id=":14.13_0_1" index="1" disallow="pedestrian tram rail_urban rail rail_electric rail_fast ship" speed="22.22" length="0.30" width="3.75" shape="571.89,805.28,20.00 571.70,805.05,20.00"/>
    <lane id=":14.13_0_2" index="2" disallow="pedestrian tram rail_urban rail rail_electric rail_fast ship" speed="22.22" length="0.30" width="3.75" shape="574.81,802.92,20.00 574.62,802.69,20.00"/>
  </edge>
  <edge id=":17.16_0" function="internal">
    <lane id=":17.16_0_0" index="0" disallow="pedestrian tram rail_urban rail rail_electric rail_fast ship" speed="22.22" length="0.30" width="3.75" shape="171.21,1399.66,8.64 171.43,1399.87,8.64"/>
  </edge>
  <edge id=":19.18_0" function="internal">
    <lane id=":19.18_0_0" index="0" disallow="pedestrian tram rail_urban rail rail_electric rail_fast ship" speed="13.89" length="0.28" width="3.75" shape="639.54,646.42,9.99 639.59,646.14,9.96"/>
  </edge>
  <edge id=":2_0" function="internal">
    <lane id=":2_0_0" index="0" disallow="pedestrian tram rail_urban rail rail_electric rail_fast ship" speed="18.06" length="24.01" width="3.75" shape="533.41,724.54,20.00 538.60,730.66,20.00 543.43,735.04,20.00 547.82,737.93,20.00 551.67,739.61,20.00"/>
  </edge>
  <edge id=":2_1" function="internal">
    <lane id=":2_1_0" index="0" disallow="pedestrian tram rail_urban rail rail_electric rail_fast ship" speed="22.22" length="24.65" width="3.75" shape="533.41,724.54,20.00 548.29,744.17,20.00"/>
    <lane id=":2_1_1" index="1" disallow="pedestrian tram rail_urban rail rail_electric rail_fast ship" speed="22.22" length="24.65" width="3.75" shape="530.42,726.79,20.00 545.31,746.44,20.00"/>
    <lane id=":2_1_2" index="2" disallow="pedestrian tram rail_urban rail rail_electric rail_fast ship" speed="22.22" length="24.65" width="3.75" shape="527.42,729.05,20.00 542.33,748.72,20.00"/>
  </edge>
  <edge id=":2.1_0" function="internal">
    <lane id=":2.1_0_0" index="0" disallow="pedestrian tram rail_urban rail rail_electric rail_fast ship" speed="22.22" length="0.10" width="3.75" shape="561.00,541.16 561.09,541.09"/>
    <lane id=":2.1_0_1" index="1" disallow="pedestrian tram rail_urban rail rail_electric rail_fast ship" speed="22.22" length="0.10" width="3.75" shape="558.79,538.12 558.88,538.06"/>
    <lane id=":2.1_0_2" index="2" disallow="pedestrian tram rail_urban rail rail_electric rail_fast ship" speed="22.22" length="0.10" width="3.75" shape="556.59,535.09 556.67,535.03"/>
  </edge>
  <edge id=":21.20_0" function="internal">
    <lane id=":21.20_0_0" index="0" disallow="pedestrian tram rail_urban rail rail_electric rail_fast ship" speed="16.67" length="0.30" width="3.75" shape="550.53,422.55,8.79 550.83,422.60,8.78"/>
  </edge>
  <edge id=":23.22_0" function="internal">
    <lane id=":23.22_0_0" index="0" disallow="pedestrian tram rail_urban rail rail_electric rail_fast ship" speed="16.67" length="0.30" width="3.75" shape="231.21,583.82,7.93 231.19,583.52,7.94"/>
  </edge>
  <edge id=":3_0" function="internal">
    <lane id=":3_0_0" index="0" disallow="pedestrian tram rail_urban rail rail_electric rail_fast ship" speed="19.44" length="94.48" width="3.75" shape="96.39,115.61,20.00 108.60,131.93,20.00 127.29,156.16,20.00 144.97,178.81,20.00 154.15,190.37,20.00"/>
  </edge>
  <edge id=":3_1" function="internal">
    <lane id=":3_1_0" index="0" disallow="pedestrian tram rail_urban rail rail_electric rail_fast ship" speed="22.22" length="94.57" width="3.75" shape="96.39,115.61,20.00 150.90,192.89,20.00"/>
    <lane id=":3_1_1" index="1" disallow="pedestrian tram rail_urban rail rail_electric rail_fast ship" speed="22.22" length="94.57" width="3.75" shape="93.32,117.77,20.00 147.84,195.05,20.00"/>
    <lane id=":3_1_2" index="2" disallow="pedestrian tram rail_urban rail rail_electric rail_fast ship" speed="22.22" length="94.57" width="3.75" shape="90.26,119.93,20.00 144.77,197.21,20.00"/>
  </edge>
  <edge id=":4_0" function="internal">
    <lane id=":4_0_0" index="0" disallow="pedestrian tram rail_urban rail rail_electric rail_fast ship" speed="22.22" length="75.44" width="3.75" shape="622.92,877.61,19.94 577.14,817.64,20.00"/>
  </edge>
  <edge id=":4_1" function="internal">
    <lane id=":4_1_0" index="0" disallow="pedestrian tram rail_urban rail rail_electric rail_fast ship" speed="22.22" length="75.06" width="3.75" shape="626.04,874.76,20.00 577.14,817.64,20.00"/>
    <lane id=":4_1_1" index="1" disallow="pedestrian tram rail_urban rail rail_electric rail_fast ship" speed="22.22" length="75.06" width="3.75" shape="628.85,872.27,20.00 580.03,815.26,20.00"/>
    <lane id=":4_1_2" index="2" disallow="pedestrian tram rail_urban rail rail_electric rail_fast ship" speed="22.22" length="75.06" width="3.75" shape="631.66,869.79,20.00 582.93,812.88,20.00"/>
  </edge>
  <edge id=":5_0" function="internal">
    <lane id=":5_0_0" index="0" disallow="pedestrian tram rail_urban rail rail_electric rail_fast ship" speed="18.06" length="26.06" width="3.75" shape="585.20,532.23 580.80,532.38 575.19,533.67 568.58,536.43 561.16,541.04"/>
  </edge>
  <edge id=":5_1" function="internal">
    <lane id=":5_1_0" index="0" disallow="pedestrian tram rail_urban rail rail_electric rail_fast ship" speed="22.22" length="24.53" width="3.75" shape="581.07,526.82 561.16,541.04"/>
    <lane id=":5_1_1" index="1" disallow="pedestrian tram rail_urban rail rail_electric rail_fast ship" speed="22.22" length="24.53" width="3.75" shape="578.92,523.75 558.96,538.01"/>
    <lane id=":5_1_2" index="2" disallow="pedestrian tram rail_urban rail rail_electric rail_fast ship" speed="22.22" length="24.53" width="3.75" shape="576.76,520.69 556.75,534.97"/>
  </edge>
  <edge id=":6_0" function="internal">
    <lane id=":6_0_0" index="0" disallow="pedestrian tram rail_urban rail rail_electric rail_fast ship" speed="19.44" length="150.64" width="3.75" shape="826.72,341.43,0.00 959.24,269.81"/>
  </edge>
  <edge id=":6_1" function="internal">
    <lane id=":6_1_0" index="0" disallow="pedestrian tram rail_urban rail rail_electric rail_fast ship" speed="22.22" length="150.45" width="3.75" shape="828.80,344.85 959.24,269.81"/>
    <lane id=":6_1_1" index="1" disallow="pedestrian tram rail_urban rail rail_electric rail_fast ship" speed="22.22" length="150.45" width="3.75" shape="830.69,348.09 961.10,273.07"/>
    <lane id=":6_1_2" index="2" disallow="pedestrian tram rail_urban rail rail_electric rail_fast ship" speed="22.22" length="150.45" width="3.75" shape="832.58,351.33 962.95,276.33"/>
  </edge>
  <edge id=":6.5_0" function="internal">
    <lane id=":6.5_0_0" index="0" disallow="pedestrian tram rail_urban rail rail_electric rail_fast ship" speed="22.22" length="0.30" width="3.75" shape="547.70,522.70 547.95,522.52"/>
    <lane id=":6.5_0_1" index="1" disallow="pedestrian tram rail_urban rail rail_electric rail_fast ship" speed="22.22" length="0.30" width="3.75" shape="549.91,525.73 550.15,525.55"/>
    <lane id=":6.5_0_2" index="2" disallow="pedestrian tram rail_urban rail rail_electric rail_fast ship" speed="22.22" length="0.30" width="3.75" shape="552.12,528.76 552.36,528.59"/>
  </edge>
  <edge id=":7_0" function="internal">
    <lane id=":7_0_0" index="0" disallow="pedestrian tram rail_urban rail rail_electric rail_fast ship" speed="19.44" length="83.45" width="3.75" shape="101.36,169.37,20.00 94.57,158.23,20.00 81.38,137.07,20.00 67.02,114.43,20.00 56.74,98.85,20.00"/>
  </edge>
  <edge id=":7_1" function="internal">
    <lane id=":7_1_0" index="0" disallow="pedestrian tram rail_urban rail rail_electric rail_fast ship" speed="22.22" length="83.18" width="3.75" shape="104.68,166.83,20.00 56.74,98.85,20.00"/>
    <lane id=":7_1_1" index="1" disallow="pedestrian tram rail_urban rail rail_electric rail_fast ship" speed="22.22" length="83.18" width="3.75" shape="107.74,164.67,20.00 59.81,96.69,20.00"/>
    <lane id=":7_1_2" index="2" disallow="pedestrian tram rail_urban rail rail_electric rail_fast ship" speed="22.22" length="83.18" width="3.75" shape="110.81,162.50,20.00 62.87,94.53,20.00"/>
  </edge>
  <edge id="-0" from="0.begin" to="5" priority="1" type="driving" shape="1102.73,202.87 1101.92,203.36 1101.10,203.86 1100.27,204.36 1099.42,204.87 1098.56,205.38 1097.69,205.90 1096.81,206.42 1095.92,206.96 1095.01,207.50 1094.09,208.04 1093.16,208.59 1092.22,209.15 1091.26,209.71 1090.29,210.28 1089.32,210.86 1088.33,211.44 1087.33,212.02 1086.31,212.62 1085.29,213.22 1084.26,213.82 1083.21,214.43 1082.15,215.05 1081.08,215.67 1080.00,216.30 1078.91,216.93 1077.81,217.57 1076.70,218.22 1075.57,218.87 1074.44,219.52 1073.29,220.19 1072.14,220.85 1070.97,221.53 1069.80,222.21 1068.61,222.89 1067.41,223.58 1066.20,224.28 1064.99,224.98 1063.76,225.68 1062.52,226.39 1061.27,227.11 1060.01,227.83 1058.75,228.56 1057.47,229.29 1056.18,230.03 1054.88,230.77 1053.58,231.52 1052.26,232.27 1050.93,233.03 1049.60,233.79 1048.25,234.56 1046.90,235.34 1045.54,236.11 1044.16,236.90 1042.78,237.69 1041.39,238.48 1039.99,239.28 1038.58,240.08 1037.16,240.89 1035.74,241.70 1034.30,242.52 1032.86,243.34 1031.40,244.17 1029.94,245.00 1028.47,245.83 1027.00,246.67 1025.51,247.52 1024.01,248.37 1022.51,249.22 1021.00,250.08 1019.48,250.95 1017.95,251.81 1016.42,252.69 1014.88,253.56 1013.32,254.44 1011.77,255.33 1010.20,256.22 1008.63,257.11 1007.04,258.01 1005.45,258.91 1003.86,259.82 1002.25,260.73 1000.64,261.65 999.02,262.56 997.40,263.49 995.76,264.42 994.12,265.35 992.48,266.28 990.82,267.22 989.16,268.16 987.49,269.11 985.82,270.06 984.14,271.02 982.45,271.98 980.76,272.94 979.06,273.90 977.35,274.87 975.64,275.85 973.92,276.83 972.19,277.81 970.46,278.79 968.72,279.78 966.97,280.77 965.22,281.77 963.47,282.77 961.71,283.77 959.94,284.78 958.16,285.79 956.38,286.80 954.60,287.81 952.81,288.83 951.01,289.86 949.21,290.88 947.41,291.91 945.59,292.95 943.78,293.98 941.95,295.02 940.13,296.06 938.30,297.11 936.46,298.16 934.62,299.21 932.77,300.26 930.92,301.32 929.06,302.38 927.20,303.45 925.34,304.51 923.47,305.58 921.59,306.66 919.71,307.73 917.83,308.81 915.94,309.89 914.05,310.97 912.15,312.06 910.26,313.15 908.35,314.24 906.44,315.34 904.53,316.43 902.62,317.53 900.70,318.64 898.78,319.74 896.85,320.85 894.92,321.96 892.99,323.07 891.05,324.19 889.11,325.30 887.17,326.42 885.22,327.55 883.27,328.67 881.32,329.80 879.37,330.93 877.41,332.06 875.45,333.19 873.48,334.33 871.52,335.46 869.55,336.60 867.57,337.74 865.60,338.89 863.62,340.03 861.64,341.18 859.66,342.33 857.68,343.48 855.69,344.64 853.70,345.79 851.71,346.95 849.72,348.11 847.73,349.27 845.73,350.44 843.73,351.60 841.73,352.77 839.73,353.94 837.72,355.11 835.72,356.28 833.71,357.45 831.70,358.63 829.70,359.80 827.68,360.98 825.67,362.16 823.66,363.34 821.64,364.52 819.63,365.71 817.61,366.89 815.60,368.08 813.58,369.27 811.56,370.46 809.54,371.65 807.52,372.84 805.50,374.03 803.48,375.23 801.45,376.42 799.43,377.62 797.41,378.82 795.38,380.02 793.36,381.22 791.34,382.42 789.31,383.62 787.29,384.82 785.27,386.02 783.24,387.23 781.22,388.44 779.20,389.64 777.17,390.85 775.15,392.06 773.13,393.27 771.11,394.48 769.08,395.69 767.06,396.90 765.04,398.11 763.03,399.32 761.01,400.53 758.99,401.75 756.97,402.96 754.96,404.18 752.94,405.39 750.93,406.61 748.92,407.82 746.91,409.04 744.90,410.26 742.89,411.48 740.88,412.69 738.88,413.91 736.87,415.13 734.87,416.35 732.87,417.57 730.87,418.79 728.87,420.00 726.88,421.22 724.89,422.44 722.90,423.66 720.91,424.88 718.92,426.10 716.94,427.32 714.95,428.54 712.97,429.76 711.00,430.98 709.02,432.20 707.05,433.42 705.08,434.64 703.11,435.85 701.15,437.07 699.19,438.29 697.23,439.51 695.27,440.73 693.32,441.94 691.37,443.16 689.43,444.38 687.48,445.59 685.54,446.81 683.61,448.02 681.67,449.24 679.74,450.45 677.82,451.66 675.89,452.88 673.97,454.09 672.06,455.30 670.15,456.51 668.24,457.72 666.33,458.93 664.43,460.14 662.54,461.35 660.65,462.56 658.76,463.76 656.88,464.97 655.00,466.17 653.12,467.38 651.25,468.58 649.39,469.78 647.52,470.98 645.67,472.18 643.82,473.38 641.97,474.58 640.13,475.77 638.29,476.97 636.46,478.16 634.63,479.35 632.80,480.55 630.99,481.74 629.17,482.92 627.37,484.11 625.57,485.30 623.77,486.48 621.98,487.67 620.19,488.85 618.41,490.03 616.64,491.21 614.87,492.39 613.11,493.56 611.35,494.74 609.60,495.91 607.85,497.08 606.12,498.25 604.38,499.42 602.66,500.58 600.94,501.75 599.22,502.91 597.51,504.07 595.81,505.23 594.12,506.39 592.43,507.54 590.75,508.70 589.07,509.85 587.40,511.00 585.74,512.14 584.09,513.29 582.44,514.43 580.80,515.57 579.16,516.71 577.54,517.85 575.92,518.99 574.31,520.12 572.70,521.25 571.10,522.38 569.51,523.50 567.93,524.63 566.36,525.75 564.79,526.87 563.23,527.98 561.68,529.10 560.13,530.21 558.60,531.32">
    <lane id="-0_0" index="0" disallow="pedestrian tram rail_urban rail rail_electric rail_fast ship" speed="22.22" length="614.47" width="3.75" shape="1107.58,210.90 1106.76,211.39 1105.93,211.89 1105.09,212.40 1104.24,212.91 1103.37,213.43 1102.50,213.95 1101.61,214.48 1100.70,215.02 1099.79,215.56 1098.87,216.11 1097.93,216.66 1096.98,217.22 1096.02,217.79 1095.05,218.36 1094.07,218.94 1093.07,219.52 1092.07,220.11 1091.05,220.71 1090.02,221.31 1088.98,221.92 1087.93,222.53 1086.87,223.15 1085.80,223.77 1084.71,224.40 1083.62,225.04 1082.51,225.68 1081.40,226.33 1080.27,226.98 1079.13,227.64 1077.99,228.30 1076.83,228.97 1075.66,229.65 1074.48,230.33 1073.29,231.01 1072.09,231.70 1070.88,232.40 1069.66,233.10 1068.43,233.81 1067.19,234.52 1065.94,235.24 1064.68,235.96 1063.41,236.69 1062.13,237.43 1060.84,238.16 1059.54,238.91 1058.23,239.66 1056.91,240.41 1055.59,241.17 1054.25,241.93 1052.90,242.70 1051.55,243.48 1050.18,244.26 1048.81,245.04 1047.43,245.83 1046.03,246.62 1044.63,247.42 1043.22,248.23 1041.80,249.03 1040.38,249.85 1038.94,250.66 1037.49,251.49 1036.04,252.31 1034.58,253.15 1033.11,253.98 1031.63,254.82 1030.14,255.67 1028.65,256.52 1027.14,257.37 1025.63,258.23 1024.11,259.10 1022.59,259.96 1021.05,260.84 1019.51,261.71 1017.95,262.60 1016.40,263.48 1014.83,264.37 1013.25,265.26 1011.67,266.16 1010.08,267.07 1008.49,267.97 1006.88,268.88 1005.27,269.80 1003.65,270.72 1002.03,271.64 1000.39,272.57 998.75,273.50 997.11,274.43 995.45,275.37 993.79,276.32 992.12,277.26 990.45,278.21 988.77,279.17 987.08,280.13 985.39,281.09 983.69,282.06 981.98,283.03 980.27,284.00 978.55,284.98 976.82,285.96 975.09,286.94 973.35,287.93 971.61,288.92 969.86,289.92 968.10,290.92 966.34,291.92 964.57,292.92 962.80,293.93 961.02,294.95 959.24,295.96 957.45,296.98 955.65,298.00 953.85,299.03 952.05,300.06 950.24,301.09 948.42,302.13 946.60,303.16 944.77,304.21 942.94,305.25 941.11,306.30 939.27,307.35 937.42,308.41 935.57,309.46 933.71,310.52 931.85,311.59 929.99,312.65 928.12,313.72 926.25,314.79 924.37,315.87 922.49,316.95 920.60,318.03 918.71,319.11 916.82,320.19 914.92,321.28 913.02,322.37 911.11,323.47 909.20,324.56 907.29,325.66 905.37,326.76 903.45,327.87 901.53,328.98 899.60,330.08 897.67,331.20 895.73,332.31 893.79,333.43 891.85,334.55 889.91,335.67 887.96,336.79 886.01,337.92 884.05,339.04 882.10,340.17 880.14,341.31 878.18,342.44 876.21,343.58 874.24,344.72 872.27,345.86 870.30,347.00 868.33,348.15 866.35,349.29 864.37,350.44 862.39,351.59 860.40,352.74 858.42,353.90 856.43,355.06 854.44,356.21 852.44,357.37 850.45,358.54 848.45,359.70 846.45,360.87 844.45,362.03 842.45,363.20 840.45,364.37 838.45,365.54 836.44,366.72 834.43,367.89 832.42,369.07 830.42,370.25 828.40,371.43 826.39,372.61 824.38,373.79 822.37,374.97 820.35,376.16 818.33,377.35 816.32,378.53 814.30,379.72 812.28,380.91 810.26,382.11 808.24,383.30 806.23,384.49 804.21,385.69 802.19,386.88 800.16,388.08 798.14,389.28 796.12,390.48 794.10,391.68 792.08,392.88 790.06,394.08 788.04,395.28 786.02,396.49 784.00,397.69 781.98,398.90 779.96,400.10 777.94,401.31 775.92,402.52 773.90,403.73 771.89,404.94 769.87,406.15 767.85,407.36 765.84,408.57 763.82,409.78 761.81,410.99 759.80,412.21 757.79,413.42 755.78,414.63 753.77,415.85 751.76,417.06 749.75,418.28 747.75,419.49 745.75,420.71 743.74,421.92 741.74,423.14 739.75,424.35 737.75,425.57 735.75,426.79 733.76,428.00 731.77,429.22 729.78,430.44 727.79,431.66 725.81,432.87 723.83,434.09 721.85,435.31 719.87,436.52 717.89,437.74 715.92,438.96 713.95,440.17 711.98,441.39 710.02,442.61 708.05,443.82 706.09,445.04 704.14,446.25 702.18,447.47 700.23,448.68 698.28,449.90 696.34,451.11 694.40,452.32 692.46,453.54 690.52,454.75 688.59,455.96 686.66,457.17 684.74,458.39 682.81,459.60 680.90,460.81 678.98,462.01 677.07,463.22 675.17,464.43 673.26,465.64 671.36,466.84 669.47,468.05 667.58,469.25 665.69,470.46 663.81,471.66 661.93,472.86 660.06,474.06 658.19,475.26 656.32,476.46 654.46,477.66 652.61,478.86 650.76,480.05 648.91,481.25 647.07,482.44 645.23,483.63 643.40,484.82 641.58,486.01 639.75,487.20 637.94,488.39 636.13,489.58 634.32,490.76 632.52,491.94 630.72,493.13 628.93,494.31 627.15,495.49 625.37,496.66 623.60,497.84 621.83,499.01 620.07,500.19 618.31,501.36 616.56,502.53 614.82,503.70 613.08,504.86 611.35,506.03 609.63,507.19 607.91,508.35 606.19,509.51 604.49,510.67 602.79,511.82 601.09,512.98 599.41,514.13 597.73,515.28 596.05,516.42 594.39,517.57 592.73,518.71 591.07,519.86 589.43,521.00 587.79,522.13 586.16,523.27 584.53,524.40 582.91,525.53 581.30,526.66 581.07,526.82" type="driving"/>
    <lane id="-0_1" index="1" disallow="pedestrian tram rail_urban rail rail_electric rail_fast ship" speed="22.22" length="614.47" width="3.75" shape="1105.64,207.69 1104.83,208.18 1104.00,208.68 1103.16,209.18 1102.31,209.69 1101.45,210.21 1100.57,210.73 1099.69,211.26 1098.79,211.79 1097.88,212.33 1096.96,212.88 1096.02,213.43 1095.07,213.99 1094.12,214.56 1093.15,215.13 1092.17,215.70 1091.17,216.29 1090.17,216.88 1089.16,217.47 1088.13,218.07 1087.09,218.68 1086.04,219.29 1084.98,219.91 1083.91,220.53 1082.83,221.16 1081.74,221.80 1080.63,222.44 1079.52,223.08 1078.39,223.74 1077.26,224.39 1076.11,225.06 1074.95,225.72 1073.79,226.40 1072.61,227.08 1071.42,227.76 1070.22,228.45 1069.01,229.15 1067.79,229.85 1066.56,230.56 1065.32,231.27 1064.07,231.99 1062.81,232.71 1061.54,233.44 1060.27,234.17 1058.98,234.91 1057.68,235.65 1056.37,236.40 1055.05,237.16 1053.73,237.91 1052.39,238.68 1051.04,239.45 1049.69,240.22 1048.32,241.00 1046.95,241.78 1045.57,242.57 1044.18,243.37 1042.78,244.16 1041.37,244.97 1039.95,245.78 1038.52,246.59 1037.08,247.41 1035.64,248.23 1034.19,249.06 1032.73,249.89 1031.26,250.72 1029.78,251.56 1028.29,252.41 1026.79,253.26 1025.29,254.11 1023.78,254.97 1022.26,255.84 1020.73,256.70 1019.20,257.58 1017.65,258.45 1016.10,259.33 1014.54,260.22 1012.98,261.11 1011.40,262.00 1009.82,262.90 1008.23,263.80 1006.63,264.71 1005.03,265.62 1003.42,266.54 1001.80,267.46 1000.17,268.38 998.54,269.31 996.90,270.24 995.25,271.17 993.60,272.11 991.94,273.06 990.27,274.00 988.60,274.95 986.92,275.91 985.23,276.87 983.54,277.83 981.83,278.80 980.13,279.77 978.41,280.74 976.69,281.72 974.97,282.70 973.24,283.68 971.50,284.67 969.76,285.66 968.00,286.66 966.25,287.66 964.49,288.66 962.72,289.66 960.95,290.67 959.17,291.69 957.38,292.70 955.59,293.72 953.80,294.74 952.00,295.77 950.19,296.80 948.38,297.83 946.56,298.87 944.74,299.91 942.92,300.95 941.08,301.99 939.25,303.04 937.41,304.09 935.56,305.15 933.71,306.21 931.85,307.27 929.99,308.33 928.13,309.40 926.26,310.47 924.38,311.54 922.51,312.61 920.62,313.69 918.74,314.77 916.85,315.85 914.95,316.94 913.05,318.03 911.15,319.12 909.24,320.22 907.33,321.31 905.42,322.41 903.50,323.51 901.58,324.62 899.66,325.73 897.73,326.83 895.79,327.95 893.86,329.06 891.92,330.18 889.98,331.30 888.03,332.42 886.09,333.54 884.13,334.67 882.18,335.80 880.22,336.93 878.26,338.06 876.30,339.19 874.33,340.33 872.37,341.47 870.39,342.61 868.42,343.76 866.44,344.90 864.47,346.05 862.49,347.20 860.50,348.35 858.52,349.50 856.53,350.66 854.54,351.81 852.55,352.97 850.56,354.13 848.56,355.30 846.56,356.46 844.56,357.63 842.56,358.79 840.56,359.96 838.56,361.13 836.55,362.31 834.55,363.48 832.54,364.66 830.53,365.83 828.52,367.01 826.51,368.19 824.49,369.37 822.48,370.56 820.46,371.74 818.45,372.93 816.43,374.11 814.41,375.30 812.40,376.49 810.38,377.68 808.36,378.88 806.34,380.07 804.32,381.26 802.30,382.46 800.27,383.66 798.25,384.85 796.23,386.05 794.21,387.25 792.19,388.45 790.16,389.66 788.14,390.86 786.12,392.06 784.10,393.27 782.08,394.47 780.06,395.68 778.04,396.89 776.02,398.09 774.00,399.30 771.98,400.51 769.96,401.72 767.94,402.93 765.92,404.14 763.91,405.36 761.89,406.57 759.88,407.78 757.86,408.99 755.85,410.21 753.84,411.42 751.83,412.64 749.82,413.85 747.81,415.07 745.81,416.28 743.80,417.50 741.80,418.72 739.80,419.93 737.80,421.15 735.80,422.37 733.80,423.59 731.81,424.80 729.81,426.02 727.82,427.24 725.84,428.46 723.85,429.68 721.86,430.89 719.88,432.11 717.90,433.33 715.93,434.55 713.95,435.77 711.98,436.98 710.01,438.20 708.04,439.42 706.08,440.63 704.12,441.85 702.16,443.07 700.20,444.28 698.25,445.50 696.30,446.72 694.35,447.93 692.41,449.15 690.47,450.36 688.53,451.57 686.60,452.79 684.67,454.00 682.74,455.21 680.82,456.42 678.90,457.63 676.98,458.84 675.07,460.05 673.16,461.26 671.25,462.47 669.35,463.68 667.46,464.89 665.56,466.09 663.67,467.30 661.79,468.50 659.91,469.70 658.03,470.91 656.16,472.11 654.30,473.31 652.43,474.51 650.57,475.71 648.72,476.90 646.87,478.10 645.03,479.29 643.19,480.49 641.36,481.68 639.53,482.87 637.70,484.06 635.88,485.25 634.07,486.44 632.26,487.63 630.46,488.81 628.66,489.99 626.87,491.18 625.08,492.36 623.30,493.54 621.52,494.72 619.75,495.89 617.99,497.07 616.23,498.24 614.48,499.41 612.73,500.58 610.99,501.75 609.26,502.92 607.53,504.08 605.81,505.24 604.09,506.40 602.38,507.56 600.68,508.72 598.98,509.88 597.29,511.03 595.61,512.18 593.93,513.33 592.26,514.48 590.60,515.63 588.94,516.77 587.29,517.91 585.65,519.05 584.01,520.19 582.38,521.33 580.76,522.46 579.15,523.59 578.92,523.75" type="driving"/>