<?xml version="1.0" encoding="UTF-8"?><!-- generated on 2022-09-02 02:00:12 by Eclipse SUMO netconvert Version 1.13.0
<configuration xmlns:xsi="http://www.w3.org/2001/XMLSchema-instance" xsi:noNamespaceSchemaLocation="http://sumo.dlr.de/xsd/netconvertConfiguration.xsd">

    <input>
        <opendrive-files value="map\classification\3\52356126\52356126.xodr"/>
    </input>

    <output>
        <output-file value="C:\Users\LinGe\AppData\Local\Temp\tmp3_c11xbc\52356126.net.xml"/>
    </output>

    <processing>
        <geometry.max-grade.fix value="false"/>
    </processing>

    <tls_building>
        <tls.left-green.time value="0"/>
    </tls_building>

    <junctions>
        <rectangular-lane-cut value="true"/>
    </junctions>

    <report>
        <aggregate-warnings value="5"/>
    </report>

</configuration>
--><net junctionCornerDetail="5" limitTurnSpeed="5.50" rectangularLaneCut="true" version="1.9" xmlns:xsi="http://www.w3.org/2001/XMLSchema-instance" xsi:noNamespaceSchemaLocation="http://sumo.dlr.de/xsd/net_file.xsd">
  <location convBoundary="0.00,0.00,1228.59,806.39" netOffset="1.11,101.66" origBoundary="-1.11,-101.66,1227.48,704.73" projParameter="!"/>
  <type disallow="pedestrian tram rail_urban rail rail_electric rail_fast ship" id="bidirectional" priority="1" speed="1.39" width="3.65"/>
  <type disallow="all" discard="1" id="border" priority="0" speed="1.39" width="0.10"/>
  <type disallow="pedestrian tram rail_urban rail rail_electric rail_fast ship" id="driving" priority="1" speed="13.89" width="3.65"/>
  <type disallow="pedestrian tram rail_urban rail rail_electric rail_fast ship" id="entry" priority="1" speed="22.22" width="3.65"/>
  <type disallow="pedestrian tram rail_urban rail rail_electric rail_fast ship" id="exit" priority="1" speed="22.22" width="3.65"/>
  <type disallow="all" discard="1" id="median" priority="0" speed="1.39" width="0.10"/>
  <type allow="private emergency authority army vip passenger hov taxi bus coach delivery truck trailer motorcycle evehicle custom1 custom2" id="mwyEntry" priority="1" speed="22.22" width="3.65"/>
  <type allow="private emergency authority army vip passenger hov taxi bus coach delivery truck trailer motorcycle evehicle custom1 custom2" id="mwyExit" priority="1" speed="22.22" width="3.65"/>
  <type disallow="all" discard="1" id="none" priority="0" speed="1.39" width="1.00"/>
  <type allow="private emergency authority army vip passenger hov taxi bus coach delivery truck trailer motorcycle evehicle custom1 custom2" id="offRamp" priority="1" speed="22.22" width="3.65"/>
  <type allow="private emergency authority army vip passenger hov taxi bus coach delivery truck trailer motorcycle evehicle custom1 custom2" id="onRamp" priority="1" speed="22.22" width="3.65"/>
  <type disallow="pedestrian tram rail_urban rail rail_electric rail_fast ship" id="parking" priority="1" speed="1.39" width="2.50"/>
  <type allow="rail_urban rail rail_electric rail_fast" id="rail" priority="3" speed="33.33" width="3.65"/>
  <type disallow="all" id="restricted" priority="0" speed="13.89" width="3.65"/>
  <type allow="authority" id="roadWorks" priority="0" speed="1.39" width="3.65"/>
  <type disallow="all" discard="1" id="shoulder" priority="0" speed="1.39" width="1.00"/>
  <type allow="custom1" discard="1" id="special1" priority="1" speed="22.22" width="3.65"/>
  <type allow="custom2" discard="1" id="special2" priority="1" speed="22.22" width="3.65"/>
  <type allow="custom1 custom2" discard="1" id="special3" priority="1" speed="22.22" width="3.65"/>
  <type disallow="pedestrian tram rail_urban rail rail_electric rail_fast ship" id="stop" priority="1" speed="13.89" width="3.65"/>
  <type allow="tram" id="tram" priority="2" speed="13.89" width="3.65"/>
  <edge function="internal" id=":0_0">
    <lane disallow="pedestrian tram rail_urban rail rail_electric rail_fast ship" id=":0_0_0" index="0" length="56.87" shape="1080.35,275.67 1067.72,282.79 1052.62,291.98 1039.27,300.45 1031.91,305.42" speed="19.44" width="3.75"/>
  </edge>
  <edge function="internal" id=":0_1">
    <lane disallow="pedestrian tram rail_urban rail rail_electric rail_fast ship" id=":0_1_0" index="0" length="57.14" shape="1080.35,275.67 1029.45,301.71" speed="22.22" width="3.75"/>
    <lane disallow="pedestrian tram rail_urban rail rail_electric rail_fast ship" id=":0_1_1" index="1" length="57.14" shape="1078.63,272.34 1027.76,298.36" speed="22.22" width="3.75"/>
    <lane disallow="pedestrian tram rail_urban rail rail_electric rail_fast ship" id=":0_1_2" index="2" length="57.14" shape="1076.91,269.00 1026.07,295.01" speed="22.22" width="3.75"/>
  </edge>
  <edge function="internal" id=":1_0">
    <lane disallow="pedestrian tram rail_urban rail rail_electric rail_fast ship" id=":1_0_0" index="0" length="37.99" shape="492.66,495.75 481.61,499.10,0.02 471.15,503.06,0.04 462.62,506.82,0.05 457.33,509.54,0.06" speed="19.44" width="3.75"/>
  </edge>
  <edge function="internal" id=":1_1">
    <lane disallow="pedestrian tram rail_urban rail rail_electric rail_fast ship" id=":1_1_0" index="0" length="38.33" shape="492.66,495.75 455.48,505.11" speed="22.22" width="3.75"/>
    <lane disallow="pedestrian tram rail_urban rail rail_electric rail_fast ship" id=":1_1_1" index="1" length="38.33" shape="491.74,492.12 454.57,501.47" speed="22.22" width="3.75"/>
    <lane disallow="pedestrian tram rail_urban rail rail_electric rail_fast ship" id=":1_1_2" index="2" length="38.33" shape="490.81,488.48 453.66,497.83" speed="22.22" width="3.75"/>
  </edge>
  <edge function="internal" id=":10_0">
    <lane disallow="pedestrian tram rail_urban rail rail_electric rail_fast ship" id=":10_0_0" index="0" length="65.77" shape="320.06,184.21,20.00 311.51,178.52,20.00 295.58,168.41,20.00 277.91,157.56,20.00 264.12,149.65,20.00" speed="16.67" width="3.75"/>
  </edge>
  <edge function="internal" id=":10_1">
    <lane disallow="pedestrian tram rail_urban rail rail_electric rail_fast ship" id=":10_1_0" index="0" length="65.39" shape="321.90,180.20,20.00 264.12,149.65,20.00" speed="22.22" width="3.75"/>
    <lane disallow="pedestrian tram rail_urban rail rail_electric rail_fast ship" id=":10_1_1" index="1" length="65.39" shape="323.67,176.89,20.00 265.86,146.33,20.00" speed="22.22" width="3.75"/>
    <lane disallow="pedestrian tram rail_urban rail rail_electric rail_fast ship" id=":10_1_2" index="2" length="65.39" shape="325.44,173.59,20.00 267.60,143.01,20.00" speed="22.22" width="3.75"/>
  </edge>
  <edge function="internal" id=":11_0">
    <lane disallow="pedestrian tram rail_urban rail rail_electric rail_fast ship" id=":11_0_0" index="0" length="66.74" shape="1041.07,265.56 1050.72,261.62 1068.39,254.11 1087.68,245.63 1102.18,238.78" speed="19.44" width="3.75"/>
  </edge>
  <edge function="internal" id=":11_1">
    <lane disallow="pedestrian tram rail_urban rail rail_electric rail_fast ship" id=":11_1_0" index="0" length="66.42" shape="1043.19,269.25 1102.18,238.78" speed="22.22" width="3.75"/>
    <lane disallow="pedestrian tram rail_urban rail rail_electric rail_fast ship" id=":11_1_1" index="1" length="66.42" shape="1044.90,272.59 1103.91,242.10" speed="22.22" width="3.75"/>
    <lane disallow="pedestrian tram rail_urban rail rail_electric rail_fast ship" id=":11_1_2" index="2" length="66.42" shape="1046.60,275.93 1105.64,245.43" speed="22.22" width="3.75"/>
  </edge>
  <edge function="internal" id=":12_0">
    <lane disallow="pedestrian tram rail_urban rail rail_electric rail_fast ship" id=":12_0_0" index="0" length="64.83" shape="784.94,490.97,20.00 777.59,484.01,20.00 763.87,471.53,20.00 748.56,458.03,20.00 736.44,447.98,20.00" speed="19.44" width="3.75"/>
  </edge>
  <edge function="internal" id=":12_1">
    <lane disallow="pedestrian tram rail_urban rail rail_electric rail_fast ship" id=":12_1_0" index="0" length="64.45" shape="787.45,487.34,20.00 736.44,447.98,20.00" speed="22.22" width="3.75"/>
    <lane disallow="pedestrian tram rail_urban rail rail_electric rail_fast ship" id=":12_1_1" index="1" length="64.45" shape="789.75,484.38,20.00 738.72,445.00,20.00" speed="22.22" width="3.75"/>
    <lane disallow="pedestrian tram rail_urban rail rail_electric rail_fast ship" id=":12_1_2" index="2" length="64.45" shape="792.05,481.42,20.00 741.01,442.02,20.00" speed="22.22" width="3.75"/>
  </edge>
  <edge function="internal" id=":13_0">
    <lane disallow="pedestrian tram rail_urban rail rail_electric rail_fast ship" id=":13_0_0" index="0" length="36.68" shape="590.55,441.19,0.00 596.29,441.24,0.00 605.14,440.63,0.00 615.77,439.18,0.00 626.83,436.72" speed="15.28" width="3.75"/>
  </edge>
  <edge function="internal" id=":13_1">
    <lane disallow="pedestrian tram rail_urban rail rail_electric rail_fast ship" id=":13_1_0" index="0" length="35.84" shape="592.31,446.21 626.83,436.72" speed="22.22" width="3.75"/>
    <lane disallow="pedestrian tram rail_urban rail rail_electric rail_fast ship" id=":13_1_1" index="1" length="35.84" shape="593.29,449.82 627.84,440.34" speed="22.22" width="3.75"/>
    <lane disallow="pedestrian tram rail_urban rail rail_electric rail_fast ship" id=":13_1_2" index="2" length="35.84" shape="594.27,453.44 628.85,443.95" speed="22.22" width="3.75"/>
  </edge>
  <edge function="internal" id=":14_0">
    <lane disallow="pedestrian tram rail_urban rail rail_electric rail_fast ship" id=":14_0_0" index="0" length="28.37" shape="580.97,297.43,20.00 582.91,301.58,20.00 586.54,306.67,20.00 592.04,312.37,20.00 599.57,318.35,20.00" speed="15.97" width="3.75"/>
  </edge>
  <edge function="internal" id=":14_1">
    <lane disallow="pedestrian tram rail_urban rail rail_electric rail_fast ship" id=":14_1_0" index="0" length="26.80" shape="577.45,303.13,20.00 599.57,318.35,20.00" speed="22.22" width="3.75"/>
    <lane disallow="pedestrian tram rail_urban rail rail_electric rail_fast ship" id=":14_1_1" index="1" length="26.80" shape="575.35,306.24,20.00 597.42,321.43,20.00" speed="22.22" width="3.75"/>
    <lane disallow="pedestrian tram rail_urban rail rail_electric rail_fast ship" id=":14_1_2" index="2" length="26.80" shape="573.25,309.34,20.00 595.27,324.50,20.00" speed="22.22" width="3.75"/>
  </edge>
  <edge function="internal" id=":14.13_0">
    <lane disallow="pedestrian tram rail_urban rail rail_electric rail_fast ship" id=":14.13_0_0" index="0" length="0.30" shape="570.61,298.54,20.00 570.87,298.71,20.00" speed="22.22" width="3.75"/>
    <lane disallow="pedestrian tram rail_urban rail rail_electric rail_fast ship" id=":14.13_0_1" index="1" length="0.30" shape="568.54,301.66,20.00 568.79,301.83,20.00" speed="22.22" width="3.75"/>
    <lane disallow="pedestrian tram rail_urban rail rail_electric rail_fast ship" id=":14.13_0_2" index="2" length="0.30" shape="566.46,304.78,20.00 566.70,304.95,20.00" speed="22.22" width="3.75"/>
  </edge>
  <edge function="internal" id=":15_0">
    <lane disallow="pedestrian tram rail_urban rail rail_electric rail_fast ship" id=":15_0_0" index="0" length="8.02" shape="738.16,427.13,0.00 730.53,429.61" speed="18.06" width="3.75"/>
  </edge>
  <edge function="internal" id=":15_1">
    <lane disallow="pedestrian tram rail_urban rail rail_electric rail_fast ship" id=":15_1_0" index="0" length="8.01" shape="738.16,427.12 730.53,429.61" speed="22.22" width="3.75"/>
    <lane disallow="pedestrian tram rail_urban rail rail_electric rail_fast ship" id=":15_1_1" index="1" length="8.01" shape="736.99,423.56 729.37,426.04" speed="22.22" width="3.75"/>
    <lane disallow="pedestrian tram rail_urban rail rail_electric rail_fast ship" id=":15_1_2" index="2" length="8.01" shape="735.82,419.99 728.22,422.48" speed="22.22" width="3.75"/>
  </edge>
  <edge function="internal" id=":2_0">
    <lane disallow="pedestrian tram rail_urban rail rail_electric rail_fast ship" id=":2_0_0" index="0" length="52.58" shape="102.86,565.82 116.20,562.14 131.62,557.20 145.18,552.55 152.89,549.69" speed="16.67" width="3.75"/>
  </edge>
  <edge function="internal" id=":2_1">
    <lane disallow="pedestrian tram rail_urban rail rail_electric rail_fast ship" id=":2_1_0" index="0" length="52.74" shape="102.86,565.82 154.23,553.86" speed="22.22" width="3.75"/>
    <lane disallow="pedestrian tram rail_urban rail rail_electric rail_fast ship" id=":2_1_1" index="1" length="52.74" shape="103.72,569.48 155.08,557.51" speed="22.22" width="3.75"/>
    <lane disallow="pedestrian tram rail_urban rail rail_electric rail_fast ship" id=":2_1_2" index="2" length="52.74" shape="104.57,573.13 155.93,561.16" speed="22.22" width="3.75"/>
  </edge>
  <edge function="internal" id=":2.1_0">
    <lane disallow="pedestrian tram rail_urban rail rail_electric rail_fast ship" id=":2.1_0_0" index="0" length="0.30" shape="742.06,425.82 741.77,425.92" speed="22.22" width="3.75"/>
    <lane disallow="pedestrian tram rail_urban rail rail_electric rail_fast ship" id=":2.1_0_1" index="1" length="0.30" shape="740.88,422.27 740.59,422.36" speed="22.22" width="3.75"/>
    <lane disallow="pedestrian tram rail_urban rail rail_electric rail_fast ship" id=":2.1_0_2" index="2" length="0.30" shape="739.69,418.71 739.41,418.80" speed="22.22" width="3.75"/>
  </edge>
  <edge function="internal" id=":22.21_0">
    <lane disallow="pedestrian tram rail_urban rail rail_electric rail_fast ship" id=":22.21_0_0" index="0" length="0.30" shape="558.24,317.64,20.00 558.00,317.47,20.00" speed="22.22" width="3.75"/>
    <lane disallow="pedestrian tram rail_urban rail rail_electric rail_fast ship" id=":22.21_0_1" index="1" length="0.30" shape="560.33,314.52,20.00 560.08,314.35,20.00" speed="22.22" width="3.75"/>
    <lane disallow="pedestrian tram rail_urban rail rail_electric rail_fast ship" id=":22.21_0_2" index="2" length="0.30" shape="562.41,311.40,20.00 562.16,311.23,20.00" speed="22.22" width="3.75"/>
  </edge>
  <edge function="internal" id=":25.24_0">
    <lane disallow="pedestrian tram rail_urban rail rail_electric rail_fast ship" id=":25.24_0_0" index="0" length="0.30" shape="967.08,446.50,8.97 967.08,446.80,8.99" speed="16.67" width="3.75"/>
  </edge>
  <edge function="internal" id=":27.26_0">
    <lane disallow="pedestrian tram rail_urban rail rail_electric rail_fast ship" id=":27.26_0_0" index="0" length="0.30" shape="677.90,549.31,11.50 677.60,549.27,11.49" speed="11.11" width="3.75"/>
  </edge>
  <edge function="internal" id=":29.28_0">
    <lane disallow="pedestrian tram rail_urban rail rail_electric rail_fast ship" id=":29.28_0_0" index="0" length="0.29" shape="381.90,358.21,11.44 382.00,357.94,11.46" speed="11.11" width="3.75"/>
  </edge>
  <edge function="internal" id=":3_0">
    <lane disallow="pedestrian tram rail_urban rail rail_electric rail_fast ship" id=":3_0_0" index="0" length="7.94" shape="730.71,405.62 738.21,403.03,0.01" speed="15.97" width="3.75"/>
  </edge>
  <edge function="internal" id=":3_1">
    <lane disallow="pedestrian tram rail_urban rail rail_electric rail_fast ship" id=":3_1_0" index="0" length="5.96" shape="730.71,405.62 736.36,403.75" speed="22.22" width="3.75"/>
    <lane disallow="pedestrian tram rail_urban rail rail_electric rail_fast ship" id=":3_1_1" index="1" length="5.96" shape="731.88,409.18 737.54,407.30" speed="22.22" width="3.75"/>
    <lane disallow="pedestrian tram rail_urban rail rail_electric rail_fast ship" id=":3_1_2" index="2" length="5.96" shape="733.06,412.75 738.73,410.86" speed="22.22" width="3.75"/>
  </edge>
  <edge function="internal" id=":31.30_0">
    <lane disallow="pedestrian tram rail_urban rail rail_electric rail_fast ship" id=":31.30_0_0" index="0" length="0.30" shape="816.45,310.37,7.77 816.75,310.39,7.76" speed="16.67" width="3.75"/>
  </edge>
  <edge function="internal" id=":33.32_0">
    <lane disallow="pedestrian tram rail_urban rail rail_electric rail_fast ship" id=":33.32_0_0" index="0" length="0.30" shape="671.35,799.84,10.53 671.65,799.79,10.54" speed="16.67" width="3.75"/>
  </edge>
  <edge function="internal" id=":35.34_0">
    <lane disallow="pedestrian tram rail_urban rail rail_electric rail_fast ship" id=":35.34_0_0" index="0" length="0.27" shape="531.97,380.10,10.60 532.01,380.36,10.56" speed="8.33" width="3.75"/>
  </edge>
  <edge function="internal" id=":37.36_0">
    <lane disallow="pedestrian tram rail_urban rail rail_electric rail_fast ship" id=":37.36_0_0" index="0" length="0.30" shape="685.10,300.49,9.95 684.85,300.34,9.98" speed="9.72" width="3.75"/>
  </edge>
  <edge function="internal" id=":39.38_0">
    <lane disallow="pedestrian tram rail_urban rail rail_electric rail_fast ship" id=":39.38_0_0" index="0" length="0.30" shape="1199.68,385.31,8.58 1199.49,385.08,8.57" speed="13.89" width="3.75"/>
  </edge>
  <edge function="internal" id=":4_0">
    <lane disallow="pedestrian tram rail_urban rail rail_electric rail_fast ship" id=":4_0_0" index="0" length="89.98" shape="372.57,181.71,20.00 453.09,221.90,20.00" speed="19.44" width="3.75"/>
  </edge>
  <edge function="internal" id=":4_1">
    <lane disallow="pedestrian tram rail_urban rail rail_electric rail_fast ship" id=":4_1_0" index="0" length="90.20" shape="372.57,181.71,20.00 451.41,225.69,20.00" speed="22.22" width="3.75"/>
    <lane disallow="pedestrian tram rail_urban rail rail_electric rail_fast ship" id=":4_1_1" index="1" length="90.20" shape="370.78,185.00,20.00 449.55,228.94,20.00" speed="22.22" width="3.75"/>
    <lane disallow="pedestrian tram rail_urban rail rail_electric rail_fast ship" id=":4_1_2" index="2" length="90.20" shape="368.98,188.30,20.00 447.68,232.20,20.00" speed="22.22" width="3.75"/>
  </edge>
  <edge function="internal" id=":5_0">
    <lane disallow="pedestrian tram rail_urban rail rail_electric rail_fast ship" id=":5_0_0" index="0" length="95.59" shape="749.97,429.69,20.00 828.00,484.90,20.00" speed="18.06" width="3.75"/>
  </edge>
  <edge function="internal" id=":5_1">
    <lane disallow="pedestrian tram rail_urban rail rail_electric rail_fast ship" id=":5_1_0" index="0" length="95.74" shape="749.97,429.69,20.00 825.70,488.31,20.00" speed="22.22" width="3.75"/>
    <lane disallow="pedestrian tram rail_urban rail rail_electric rail_fast ship" id=":5_1_1" index="1" length="95.74" shape="747.69,432.66,20.00 823.39,491.27,20.00" speed="22.22" width="3.75"/>
    <lane disallow="pedestrian tram rail_urban rail rail_electric rail_fast ship" id=":5_1_2" index="2" length="95.74" shape="745.40,435.64,20.00 821.08,494.22,20.00" speed="22.22" width="3.75"/>
  </edge>
  <edge function="internal" id=":6_0">
    <lane disallow="pedestrian tram rail_urban rail rail_electric rail_fast ship" id=":6_0_0" index="0" length="41.46" shape="1087.24,725.30,20.00 1077.48,718.19,19.97 1067.06,711.50,19.95 1058.02,706.13,19.92 1052.37,702.95,19.91" speed="16.67" width="3.75"/>
  </edge>
  <edge function="internal" id=":6_1">
    <lane disallow="pedestrian tram rail_urban rail rail_electric rail_fast ship" id=":6_1_0" index="0" length="41.57" shape="1087.24,725.30,20.00 1054.83,699.28,20.00" speed="22.22" width="3.75"/>
    <lane disallow="pedestrian tram rail_urban rail rail_electric rail_fast ship" id=":6_1_1" index="1" length="41.57" shape="1089.59,722.38,20.00 1057.18,696.35,20.00" speed="22.22" width="3.75"/>
    <lane disallow="pedestrian tram rail_urban rail rail_electric rail_fast ship" id=":6_1_2" index="2" length="41.57" shape="1091.94,719.46,20.00 1059.52,693.43,20.00" speed="22.22" width="3.75"/>
  </edge>
  <edge function="internal" id=":7_0">
    <lane disallow="pedestrian tram rail_urban rail rail_electric rail_fast ship" id=":7_0_0" index="0" length="34.91" shape="608.43,352.51,20.00 599.13,346.52,20.00 590.20,341.77,20.00 582.64,338.43,20.00 577.48,336.65,20.00" speed="15.28" width="3.75"/>
  </edge>
  <edge function="internal" id=":7_1">
    <lane disallow="pedestrian tram rail_urban rail rail_electric rail_fast ship" id=":7_1_0" index="0" length="35.23" shape="608.43,352.51,20.00 579.70,332.24,20.00" speed="22.22" width="3.75"/>
    <lane disallow="pedestrian tram rail_urban rail rail_electric rail_fast ship" id=":7_1_1" index="1" length="35.23" shape="610.62,349.46,20.00 581.83,329.15,20.00" speed="22.22" width="3.75"/>
    <lane disallow="pedestrian tram rail_urban rail rail_electric rail_fast ship" id=":7_1_2" index="2" length="35.23" shape="612.80,346.41,20.00 583.96,326.07,20.00" speed="22.22" width="3.75"/>
  </edge>
  <edge function="internal" id=":8_0">
    <lane disallow="pedestrian tram rail_urban rail rail_electric rail_fast ship" id=":8_0_0" index="0" length="56.11" shape="1028.93,643.58,20.00 1035.04,649.87,20.00 1046.17,660.72,20.00 1058.87,672.63,20.00 1069.72,682.08,20.00" speed="19.44" width="3.75"/>
  </edge>
  <edge function="internal" id=":8_1">
    <lane disallow="pedestrian tram rail_urban rail rail_electric rail_fast ship" id=":8_1_0" index="0" length="55.65" shape="1026.30,647.27,20.00 1069.72,682.08,20.00" speed="22.22" width="3.75"/>
    <lane disallow="pedestrian tram rail_urban rail rail_electric rail_fast ship" id=":8_1_1" index="1" length="55.65" shape="1023.96,650.19,20.00 1067.37,685.00,20.00" speed="22.22" width="3.75"/>
    <lane disallow="pedestrian tram rail_urban rail rail_electric rail_fast ship" id=":8_1_2" index="2" length="55.65" shape="1021.62,653.12,20.00 1065.03,687.93,20.00" speed="22.22" width="3.75"/>
  </edge>
  <edge function="internal" id=":9_0">
    <lane disallow="pedestrian tram rail_urban rail rail_electric rail_fast ship" id=":9_0_0" index="0" length="155.69" shape="231.79,563.15,0.00 79.32,594.66" speed="16.67" width="3.75"/>
  </edge>
  <edge function="internal" id=":9_1">
    <lane disallow="pedestrian tram rail_urban rail rail_electric rail_fast ship" id=":9_1_0" index="0" length="155.53" shape="230.79,559.29 79.32,594.66" speed="22.22" width="3.75"/>
    <lane disallow="pedestrian tram rail_urban rail rail_electric rail_fast ship" id=":9_1_1" index="1" length="155.53" shape="229.93,555.64 78.47,591.01" speed="22.22" width="3.75"/>
    <lane disallow="pedestrian tram rail_urban rail rail_electric rail_fast ship" id=":9_1_2" index="2" length="155.53" shape="229.07,551.99 77.62,587.36" speed="22.22" width="3.75"/>
  </edge>
  <edge function="internal" id=":9.10_0">
    <lane disallow="pedestrian tram rail_urban rail rail_electric rail_fast ship" id=":9.10_0_0" index="0" length="1.77" shape="736.55,403.68 734.86,404.24" speed="22.22" width="3.75"/>
    <lane disallow="pedestrian tram rail_urban rail rail_electric rail_fast ship" id=":9.10_0_1" index="1" length="1.77" shape="737.73,407.24 736.05,407.80" speed="22.22" width="3.75"/>
    <lane disallow="pedestrian tram rail_urban rail rail_electric rail_fast ship" id=":9.10_0_2" index="2" length="1.77" shape="738.92,410.80 737.24,411.36" speed="22.22" width="3.75"/>
  </edge>
  <edge from="0.begin" id="-0" priority="1" shape="1201.74,203.56 1200.40,204.18 1199.04,204.82 1197.66,205.46 1196.28,206.11 1194.88,206.77 1193.47,207.44 1192.04,208.12 1190.61,208.81 1189.16,209.50 1187.69,210.21 1186.22,210.92 1184.73,211.65 1183.23,212.38 1181.72,213.12 1180.19,213.87 1178.65,214.62 1177.10,215.39 1175.54,216.16 1173.96,216.95 1172.38,217.74 1170.78,218.54 1169.17,219.34 1167.54,220.16 1165.91,220.98 1164.26,221.81 1162.61,222.65 1160.94,223.49 1159.25,224.34 1157.56,225.20 1155.86,226.07 1154.14,226.95 1152.41,227.83 1150.67,228.72 1148.92,229.61 1147.16,230.52 1145.39,231.43 1143.60,232.34 1141.81,233.27 1140.00,234.20 1138.19,235.13 1136.36,236.07 1134.52,237.02 1132.67,237.98 1130.81,238.94 1128.94,239.91 1127.06,240.88 1125.17,241.86 1123.27,242.85 1121.35,243.84 1119.43,244.84 1117.50,245.84 1115.55,246.85 1113.60,247.86 1111.64,248.88 1109.66,249.91 1107.68,250.94 1105.69,251.97 1103.68,253.01 1101.67,254.06 1099.65,255.11 1097.62,256.16 1095.57,257.22 1093.52,258.29 1091.46,259.36 1089.39,260.43 1087.31,261.51 1085.22,262.59 1083.12,263.68 1081.01,264.77 1078.90,265.86 1076.77,266.96 1074.64,268.07 1072.49,269.18" to="0" type="driving">
    <lane disallow="pedestrian tram rail_urban rail rail_electric rail_fast ship" id="-0_0" index="0" length="140.71" shape="1205.68,212.07 1204.34,212.69 1203.00,213.31 1201.64,213.95 1200.27,214.59 1198.89,215.24 1197.49,215.91 1196.08,216.58 1194.66,217.26 1193.22,217.95 1191.77,218.65 1190.31,219.36 1188.83,220.07 1187.34,220.80 1185.84,221.54 1184.33,222.28 1182.80,223.03 1181.26,223.79 1179.71,224.56 1178.14,225.34 1176.56,226.13 1174.97,226.92 1173.37,227.72 1171.75,228.53 1170.13,229.35 1168.49,230.18 1166.84,231.01 1165.17,231.86 1163.50,232.70 1161.81,233.56 1160.11,234.43 1158.40,235.30 1156.68,236.18 1154.94,237.06 1153.20,237.96 1151.44,238.86 1149.67,239.77 1147.89,240.68 1146.10,241.60 1144.30,242.53 1142.48,243.46 1140.66,244.41 1138.82,245.35 1136.98,246.31 1135.12,247.27 1133.25,248.23 1131.37,249.21 1129.48,250.19 1127.58,251.17 1125.67,252.16 1123.75,253.16 1121.82,254.16 1119.87,255.17 1117.92,256.18 1115.96,257.20 1113.98,258.23 1112.00,259.26 1110.01,260.29 1108.00,261.33 1105.99,262.38 1103.97,263.43 1101.93,264.48 1099.89,265.54 1097.84,266.61 1095.78,267.68 1093.71,268.75 1091.62,269.83 1089.53,270.92 1087.43,272.00 1085.32,273.10 1083.21,274.19 1081.08,275.29 1080.35,275.67" speed="22.22" type="driving" width="3.75"/>
    <lane disallow="pedestrian tram rail_urban rail rail_electric rail_fast ship" id="-0_1" index="1" length="140.71" shape="1204.10,208.67 1202.76,209.29 1201.41,209.91 1200.05,210.55 1198.67,211.20 1197.29,211.85 1195.88,212.52 1194.47,213.19 1193.04,213.88 1191.60,214.57 1190.14,215.27 1188.67,215.98 1187.19,216.70 1185.70,217.43 1184.19,218.17 1182.67,218.91 1181.14,219.67 1179.60,220.43 1178.04,221.20 1176.47,221.98 1174.89,222.77 1173.29,223.57 1171.69,224.37 1170.07,225.18 1168.44,226.00 1166.80,226.83 1165.14,227.67 1163.48,228.51 1161.80,229.36 1160.11,230.22 1158.41,231.08 1156.69,231.96 1154.97,232.84 1153.23,233.73 1151.49,234.62 1149.73,235.52 1147.96,236.43 1146.18,237.35 1144.38,238.27 1142.58,239.20 1140.76,240.13 1138.94,241.07 1137.10,242.02 1135.25,242.98 1133.40,243.94 1131.53,244.90 1129.65,245.88 1127.76,246.86 1125.85,247.84 1123.94,248.83 1122.02,249.83 1120.09,250.83 1118.15,251.84 1116.19,252.85 1114.23,253.87 1112.26,254.90 1110.27,255.93 1108.28,256.96 1106.28,258.00 1104.26,259.05 1102.24,260.10 1100.21,261.16 1098.16,262.22 1096.11,263.28 1094.05,264.35 1091.98,265.42 1089.90,266.50 1087.81,267.59 1085.71,268.67 1083.60,269.76 1081.48,270.86 1079.36,271.96 1078.63,272.34" speed="22.22" type="driving" width="3.75"/>
    <lane disallow="pedestrian tram rail_urban rail rail_electric rail_fast ship" id="-0_2" index="2" length="140.71" shape="1202.53,205.26 1201.18,205.89 1199.83,206.52 1198.46,207.16 1197.08,207.80 1195.68,208.46 1194.27,209.13 1192.85,209.81 1191.42,210.50 1189.97,211.19 1188.51,211.90 1187.04,212.61 1185.55,213.33 1184.05,214.06 1182.54,214.80 1181.02,215.55 1179.48,216.31 1177.93,217.07 1176.37,217.84 1174.80,218.63 1173.21,219.42 1171.62,220.21 1170.01,221.02 1168.39,221.83 1166.75,222.65 1165.11,223.48 1163.45,224.32 1161.78,225.16 1160.10,226.02 1158.41,226.88 1156.71,227.74 1154.99,228.62 1153.26,229.50 1151.53,230.39 1149.78,231.28 1148.02,232.18 1146.24,233.09 1144.46,234.01 1142.67,234.93 1140.86,235.86 1139.05,236.80 1137.22,237.74 1135.38,238.69 1133.53,239.64 1131.67,240.61 1129.80,241.57 1127.92,242.55 1126.03,243.53 1124.13,244.51 1122.22,245.50 1120.29,246.50 1118.36,247.50 1116.42,248.51 1114.46,249.53 1112.50,250.55 1110.53,251.57 1108.54,252.60 1106.55,253.64 1104.55,254.68 1102.53,255.72 1100.51,256.77 1098.48,257.83 1096.44,258.89 1094.39,259.95 1092.32,261.02 1090.25,262.09 1088.17,263.17 1086.08,264.26 1083.98,265.34 1081.88,266.43 1079.76,267.53 1077.63,268.63 1076.91,269.00" speed="22.22" type="driving" width="3.75"/>
  </edge>