<?xml version='1.0' encoding='UTF-8'?>
<!-- generated on 2022-09-06 05:10:09 by Eclipse SUMO netconvert Version 1.13.0
<configuration xmlns:xsi="http://www.w3.org/2001/XMLSchema-instance" xsi:noNamespaceSchemaLocation="http://sumo.dlr.de/xsd/netconvertConfiguration.xsd">

    <input>
        <opendrive-files value="map\16\66116615\66116615.xodr"/>
    </input>

    <output>
        <output-file value="C:\Users\LinGe\AppData\Local\Temp\tmpwg5fsde0\66116615.net.xml"/>
    </output>

    <processing>
        <geometry.max-grade.fix value="false"/>
    </processing>

    <tls_building>
        <tls.left-green.time value="0"/>
    </tls_building>

    <junctions>
        <rectangular-lane-cut value="true"/>
    </junctions>

    <report>
        <aggregate-warnings value="5"/>
    </report>

</configuration>
-->
<net xmlns:xsi="http://www.w3.org/2001/XMLSchema-instance" version="1.9" junctionCornerDetail="5" rectangularLaneCut="true" limitTurnSpeed="5.50" xsi:noNamespaceSchemaLocation="http://sumo.dlr.de/xsd/net_file.xsd">
  <location netOffset="301.35,157.45" convBoundary="0.00,0.00,1260.02,1358.93" origBoundary="-301.35,-157.45,958.68,1201.48" projParameter="!"/>
  <type id="bidirectional" priority="1" speed="1.39" disallow="pedestrian tram rail_urban rail rail_electric rail_fast ship" width="3.65"/>
  <type id="border" priority="0" speed="1.39" disallow="all" discard="1" width="0.10"/>
  <type id="driving" priority="1" speed="13.89" disallow="pedestrian tram rail_urban rail rail_electric rail_fast ship" width="3.65"/>
  <type id="entry" priority="1" speed="22.22" disallow="pedestrian tram rail_urban rail rail_electric rail_fast ship" width="3.65"/>
  <type id="exit" priority="1" speed="22.22" disallow="pedestrian tram rail_urban rail rail_electric rail_fast ship" width="3.65"/>
  <type id="median" priority="0" speed="1.39" disallow="all" discard="1" width="0.10"/>
  <type id="mwyEntry" priority="1" speed="22.22" allow="private emergency authority army vip passenger hov taxi bus coach delivery truck trailer motorcycle evehicle custom1 custom2" width="3.65"/>
  <type id="mwyExit" priority="1" speed="22.22" allow="private emergency authority army vip passenger hov taxi bus coach delivery truck trailer motorcycle evehicle custom1 custom2" width="3.65"/>
  <type id="none" priority="0" speed="1.39" disallow="all" discard="1" width="1.00"/>
  <type id="offRamp" priority="1" speed="22.22" allow="private emergency authority army vip passenger hov taxi bus coach delivery truck trailer motorcycle evehicle custom1 custom2" width="3.65"/>
  <type id="onRamp" priority="1" speed="22.22" allow="private emergency authority army vip passenger hov taxi bus coach delivery truck trailer motorcycle evehicle custom1 custom2" width="3.65"/>
  <type id="parking" priority="1" speed="1.39" disallow="pedestrian tram rail_urban rail rail_electric rail_fast ship" width="2.50"/>
  <type id="rail" priority="3" speed="33.33" allow="rail_urban rail rail_electric rail_fast" width="3.65"/>
  <type id="restricted" priority="0" speed="13.89" disallow="all" width="3.65"/>
  <type id="roadWorks" priority="0" speed="1.39" allow="authority" width="3.65"/>
  <type id="shoulder" priority="0" speed="1.39" disallow="all" discard="1" width="1.00"/>
  <type id="special1" priority="1" speed="22.22" allow="custom1" discard="1" width="3.65"/>
  <type id="special2" priority="1" speed="22.22" allow="custom2" discard="1" width="3.65"/>
  <type id="special3" priority="1" speed="22.22" allow="custom1 custom2" discard="1" width="3.65"/>
  <type id="stop" priority="1" speed="13.89" disallow="pedestrian tram rail_urban rail rail_electric rail_fast ship" width="3.65"/>
  <type id="tram" priority="2" speed="13.89" allow="tram" width="3.65"/>
  <edge id=":0_0" function="internal">
    <lane id=":0_0_0" index="0" disallow="pedestrian tram rail_urban rail rail_electric rail_fast ship" speed="16.67" length="8.02" width="3.75" shape="540.25,853.04 545.40,846.89,0.00"/>
  </edge>
  <edge id=":1_0" function="internal">
    <lane id=":1_0_0" index="0" disallow="pedestrian tram rail_urban rail rail_electric rail_fast ship" speed="10.24" length="13.09" width="3.75" shape="456.56,293.83,20.00 459.21,295.77,20.00 462.13,296.91,20.00 465.31,297.25,20.00 468.75,296.79,20.00"/>
  </edge>
  <edge id=":1_1" function="internal">
    <lane id=":1_1_0" index="0" disallow="pedestrian tram rail_urban rail rail_electric rail_fast ship" speed="22.22" length="14.12" width="3.75" shape="456.56,293.83,20.00 466.91,303.42,20.00"/>
    <lane id=":1_1_1" index="1" disallow="pedestrian tram rail_urban rail rail_electric rail_fast ship" speed="22.22" length="14.12" width="3.75" shape="454.01,296.58,20.00 464.36,306.17,20.00"/>
    <lane id=":1_1_2" index="2" disallow="pedestrian tram rail_urban rail rail_electric rail_fast ship" speed="22.22" length="14.12" width="3.75" shape="451.46,299.33,20.00 461.82,308.92,20.00"/>
  </edge>
  <edge id=":1.0_0" function="internal">
    <lane id=":1.0_0_0" index="0" disallow="pedestrian tram rail_urban rail rail_electric rail_fast ship" speed="22.22" length="0.30" width="3.75" shape="307.98,1166.87 307.75,1167.08"/>
    <lane id=":1.0_0_1" index="1" disallow="pedestrian tram rail_urban rail rail_electric rail_fast ship" speed="22.22" length="0.30" width="3.75" shape="305.45,1164.10 305.23,1164.30"/>
    <lane id=":1.0_0_2" index="2" disallow="pedestrian tram rail_urban rail rail_electric rail_fast ship" speed="22.22" length="0.30" width="3.75" shape="302.93,1161.33 302.71,1161.53"/>
  </edge>
  <edge id=":13.12_0" function="internal">
    <lane id=":13.12_0_0" index="0" disallow="pedestrian tram rail_urban rail rail_electric rail_fast ship" speed="11.11" length="0.30" width="3.75" shape="1015.88,291.34,10.06 1015.87,291.05,10.06"/>
  </edge>
  <edge id=":16.15_0" function="internal">
    <lane id=":16.15_0_0" index="0" disallow="pedestrian tram rail_urban rail rail_electric rail_fast ship" speed="16.67" length="0.30" width="3.75" shape="1259.15,262.66,10.01 1259.20,262.95,10.01"/>
  </edge>
  <edge id=":19.18_0" function="internal">
    <lane id=":19.18_0_0" index="0" disallow="pedestrian tram rail_urban rail rail_electric rail_fast ship" speed="8.33" length="0.29" width="3.75" shape="375.87,546.58,18.91 375.91,546.87,18.91"/>
  </edge>
  <edge id=":2_0" function="internal">
    <lane id=":2_0_0" index="0" disallow="pedestrian tram rail_urban rail rail_electric rail_fast ship" speed="15.28" length="8.00" width="3.75" shape="939.97,825.11,20.00 935.31,818.60,20.00"/>
  </edge>
  <edge id=":2_1" function="internal">
    <lane id=":2_1_0" index="0" disallow="pedestrian tram rail_urban rail rail_electric rail_fast ship" speed="22.22" length="8.00" width="3.75" shape="939.97,825.11,20.00 935.33,818.62,20.00"/>
    <lane id=":2_1_1" index="1" disallow="pedestrian tram rail_urban rail rail_electric rail_fast ship" speed="22.22" length="8.00" width="3.75" shape="943.02,822.94,20.00 938.37,816.43,20.00"/>
    <lane id=":2_1_2" index="2" disallow="pedestrian tram rail_urban rail rail_electric rail_fast ship" speed="22.22" length="8.00" width="3.75" shape="946.08,820.76,20.00 941.42,814.24,20.00"/>
  </edge>
  <edge id=":21.20_0" function="internal">
    <lane id=":21.20_0_0" index="0" disallow="pedestrian tram rail_urban rail rail_electric rail_fast ship" speed="8.33" length="0.30" width="3.75" shape="427.04,93.43,12.62 427.05,93.13,12.62"/>
  </edge>
  <edge id=":3_0" function="internal">
    <lane id=":3_0_0" index="0" disallow="pedestrian tram rail_urban rail rail_electric rail_fast ship" speed="10.32" length="16.67" width="3.75" shape="532.17,350.47,19.91 530.99,355.17,19.93 531.00,359.33,19.96 532.21,362.92,19.98 534.61,365.97,20.00"/>
  </edge>
  <edge id=":3_1" function="internal">
    <lane id=":3_1_0" index="0" disallow="pedestrian tram rail_urban rail rail_electric rail_fast ship" speed="22.22" length="14.10" width="3.75" shape="524.26,356.40,20.00 534.61,365.97,20.00"/>
    <lane id=":3_1_1" index="1" disallow="pedestrian tram rail_urban rail rail_electric rail_fast ship" speed="22.22" length="14.10" width="3.75" shape="521.71,359.15,20.00 532.06,368.73,20.00"/>
    <lane id=":3_1_2" index="2" disallow="pedestrian tram rail_urban rail rail_electric rail_fast ship" speed="22.22" length="14.10" width="3.75" shape="519.16,361.90,20.00 529.51,371.48,20.00"/>
  </edge>
  <edge id=":3.2_0" function="internal">
    <lane id=":3.2_0_0" index="0" disallow="pedestrian tram rail_urban rail rail_electric rail_fast ship" speed="22.22" length="0.30" width="3.75" shape="292.45,1150.24 292.67,1150.05"/>
    <lane id=":3.2_0_1" index="1" disallow="pedestrian tram rail_urban rail rail_electric rail_fast ship" speed="22.22" length="0.30" width="3.75" shape="294.97,1153.02 295.19,1152.82"/>
    <lane id=":3.2_0_2" index="2" disallow="pedestrian tram rail_urban rail rail_electric rail_fast ship" speed="22.22" length="0.30" width="3.75" shape="297.49,1155.80 297.72,1155.59"/>
  </edge>
  <edge id=":4_0" function="internal">
    <lane id=":4_0_0" index="0" disallow="pedestrian tram rail_urban rail rail_electric rail_fast ship" speed="11.11" length="2.99" width="3.75" shape="574.82,286.14,17.78 572.92,288.45,17.88"/>
  </edge>
  <edge id=":4_1" function="internal">
    <lane id=":4_1_0" index="0" disallow="pedestrian tram rail_urban rail rail_electric rail_fast ship" speed="9.72" length="3.00" width="3.75" shape="574.82,286.14,17.78 572.91,288.46,17.83"/>
  </edge>
  <edge id=":5_0" function="internal">
    <lane id=":5_0_0" index="0" disallow="pedestrian tram rail_urban rail rail_electric rail_fast ship" speed="19.44" length="8.28" width="3.75" shape="563.08,862.02,0.00 561.18,863.57,0.00 559.99,864.75,0.00 558.91,866.06,0.00 557.37,867.98"/>
  </edge>
  <edge id=":6_0" function="internal">
    <lane id=":6_0_0" index="0" disallow="pedestrian tram rail_urban rail rail_electric rail_fast ship" speed="13.00" length="19.61" width="3.75" shape="580.72,451.39,20.00 580.70,446.36,20.00 579.59,441.73,20.00 577.37,437.51,20.00 574.05,433.70,20.00"/>
  </edge>
  <edge id=":6_1" function="internal">
    <lane id=":6_1_0" index="0" disallow="pedestrian tram rail_urban rail rail_electric rail_fast ship" speed="22.22" length="17.49" width="3.75" shape="586.82,445.65,20.00 574.05,433.70,20.00"/>
    <lane id=":6_1_1" index="1" disallow="pedestrian tram rail_urban rail rail_electric rail_fast ship" speed="22.22" length="17.49" width="3.75" shape="589.38,442.91,20.00 576.62,430.96,20.00"/>
    <lane id=":6_1_2" index="2" disallow="pedestrian tram rail_urban rail rail_electric rail_fast ship" speed="22.22" length="17.49" width="3.75" shape="591.95,440.18,20.00 579.18,428.22,20.00"/>
  </edge>
  <edge id=":7_0" function="internal">
    <lane id=":7_0_0" index="0" disallow="pedestrian tram rail_urban rail rail_electric rail_fast ship" speed="16.67" length="10.58" width="3.75" shape="963.17,645.00,5.26 954.21,650.64,5.12"/>
  </edge>
  <edge id=":7_1" function="internal">
    <lane id=":7_1_0" index="0" disallow="pedestrian tram rail_urban rail rail_electric rail_fast ship" speed="9.58" length="9.91" width="3.75" shape="959.27,642.50,5.15 958.71,645.03,5.14 957.68,647.23,5.14 956.18,649.10,5.13 954.21,650.64,5.12"/>
  </edge>
  <edge id=":7.6_0" function="internal">
    <lane id=":7.6_0_0" index="0" disallow="pedestrian tram rail_urban rail rail_electric rail_fast ship" speed="22.22" length="0.30" width="3.75" shape="862.03,689.72,20.00 862.23,689.95,20.00"/>
    <lane id=":7.6_0_1" index="1" disallow="pedestrian tram rail_urban rail rail_electric rail_fast ship" speed="22.22" length="0.30" width="3.75" shape="859.21,692.19,20.00 859.41,692.42,20.00"/>
    <lane id=":7.6_0_2" index="2" disallow="pedestrian tram rail_urban rail rail_electric rail_fast ship" speed="22.22" length="0.30" width="3.75" shape="856.39,694.66,20.00 856.58,694.88,20.00"/>
  </edge>
  <edge id=":9.10_0" function="internal">
    <lane id=":9.10_0_0" index="0" disallow="pedestrian tram rail_urban rail rail_electric rail_fast ship" speed="22.22" length="0.30" width="3.75" shape="845.10,704.92,20.00 844.91,704.70,20.00"/>
    <lane id=":9.10_0_1" index="1" disallow="pedestrian tram rail_urban rail rail_electric rail_fast ship" speed="22.22" length="0.30" width="3.75" shape="847.93,702.46,20.00 847.73,702.23,20.00"/>
    <lane id=":9.10_0_2" index="2" disallow="pedestrian tram rail_urban rail rail_electric rail_fast ship" speed="22.22" length="0.30" width="3.75" shape="850.75,699.99,20.00 850.55,699.76,20.00"/>
  </edge>
  <edge id="-0" from="5" to="1.0" priority="1" type="driving" shape="552.69,858.93 551.72,860.10 550.75,861.27 549.78,862.45 548.82,863.62 547.86,864.80 546.90,865.98 545.95,867.16 545.00,868.35 544.06,869.54 543.11,870.73 542.17,871.92 541.23,873.11 540.30,874.31 539.37,875.51 538.44,876.71 537.51,877.91 536.58,879.12 535.66,880.33 534.73,881.54 533.81,882.75 532.90,883.97 531.98,885.19 531.06,886.41 530.15,887.63 529.24,888.86 528.33,890.09 527.42,891.32 526.51,892.55 525.60,893.79 524.69,895.03 523.79,896.27 522.88,897.52 521.97,898.76 521.07,900.01 520.17,901.27 519.26,902.52 518.36,903.78 517.45,905.05 516.55,906.31 515.64,907.58 514.74,908.85 513.83,910.12 512.92,911.40 512.02,912.68 511.11,913.97 510.20,915.25 509.29,916.54 508.38,917.84 507.47,919.13 506.56,920.43 505.64,921.73 504.73,923.04 503.81,924.35 502.89,925.66 501.97,926.98 501.04,928.30 500.12,929.62 499.19,930.95 498.26,932.28 497.33,933.61 496.40,934.94 495.46,936.28 494.52,937.63 493.58,938.98 492.63,940.33 491.69,941.68 490.73,943.04 489.78,944.40 488.82,945.77 487.86,947.14 486.90,948.51 485.93,949.89 484.96,951.27 483.98,952.65 483.00,954.04 482.02,955.43 481.03,956.83 480.04,958.23 479.04,959.63 478.04,961.04 477.04,962.45 476.03,963.87 475.01,965.29 473.99,966.71 472.97,968.14 471.94,969.57 470.91,971.01 469.87,972.45 468.82,973.89 467.77,975.34 466.71,976.79 465.65,978.25 464.58,979.71 463.51,981.18 462.43,982.65 461.34,984.13 460.25,985.61 459.15,987.09 458.05,988.58 456.94,990.07 455.82,991.57 454.69,993.07 453.56,994.57 452.42,996.09 451.28,997.60 450.12,999.12 448.96,1000.65 447.80,1002.18 446.62,1003.71 445.44,1005.25 444.25,1006.79 443.05,1008.34 441.84,1009.89 440.63,1011.45 439.41,1013.01 438.18,1014.58 436.94,1016.15 435.69,1017.73 434.44,1019.31 433.17,1020.90 431.90,1022.49 430.62,1024.09 429.33,1025.69 428.03,1027.30 426.72,1028.91 425.40,1030.53 424.07,1032.15 422.73,1033.78 421.39,1035.42 420.03,1037.05 418.66,1038.70 417.29,1040.35 415.90,1042.00 414.50,1043.66 413.10,1045.33 411.68,1047.00 410.25,1048.67 408.82,1050.35 407.37,1052.04 405.91,1053.73 404.44,1055.43 402.96,1057.13 401.46,1058.84 399.96,1060.56 398.45,1062.28 396.92,1064.00 395.38,1065.73 393.83,1067.47 392.27,1069.21 390.70,1070.96 389.12,1072.71 387.52,1074.47 385.91,1076.24 384.29,1078.01 382.66,1079.79 381.01,1081.57 379.36,1083.36 377.68,1085.16 376.00,1086.96 374.30,1088.76 372.60,1090.58 370.87,1092.39 369.14,1094.22 367.39,1096.05 365.63,1097.89 363.85,1099.73 362.06,1101.58 360.26,1103.44 358.44,1105.30 356.61,1107.16 354.77,1109.04 352.91,1110.92 351.04,1112.81 349.15,1114.70 347.25,1116.60 345.33,1118.50 343.40,1120.42 341.46,1122.34 339.50,1124.26 337.52,1126.19 335.53,1128.13 333.53,1130.07 331.51,1132.03 329.47,1133.98 327.42,1135.95 325.35,1137.92 323.27,1139.90 321.17,1141.88 319.06,1143.87 316.93,1145.87 314.78,1147.87 312.62,1149.88 310.44,1151.90 308.24,1153.93 306.03,1155.96 303.80,1158.00 301.56,1160.04">
    <lane id="-0_0" index="0" disallow="pedestrian tram rail_urban rail rail_electric rail_fast ship" speed="22.22" length="389.73" width="3.75" shape="557.37,867.98 557.03,868.39 556.08,869.55 555.14,870.71 554.20,871.87 553.26,873.03 552.33,874.20 551.39,875.37 550.46,876.54 549.54,877.72 548.61,878.90 547.69,880.08 546.77,881.26 545.85,882.44 544.94,883.63 544.02,884.82 543.11,886.01 542.20,887.21 541.29,888.41 540.38,889.61 539.48,890.82 538.57,892.02 537.67,893.23 536.76,894.45 535.86,895.66 534.96,896.88 534.06,898.11 533.16,899.33 532.26,900.56 531.36,901.79 530.46,903.03 529.57,904.26 528.67,905.51 527.77,906.75 526.87,908.00 525.97,909.25 525.07,910.50 524.18,911.76 523.28,913.02 522.38,914.29 521.47,915.55 520.57,916.82 519.67,918.10 518.77,919.38 517.86,920.66 516.95,921.94 516.05,923.23 515.14,924.52 514.23,925.82 513.32,927.12 512.40,928.42 511.49,929.73 510.57,931.04 509.65,932.35 508.73,933.67 507.80,934.99 506.88,936.32 505.95,937.65 505.02,938.98 504.08,940.32 503.14,941.66 502.20,943.00 501.26,944.35 500.31,945.70 499.37,947.06 498.41,948.42 497.46,949.78 496.50,951.15 495.53,952.52 494.57,953.90 493.60,955.28 492.62,956.66 491.64,958.05 490.66,959.45 489.67,960.84 488.68,962.24 487.69,963.65 486.69,965.06 485.68,966.47 484.67,967.89 483.66,969.31 482.64,970.74 481.61,972.17 480.58,973.61 479.55,975.05 478.51,976.49 477.46,977.94 476.41,979.39 475.36,980.85 474.29,982.31 473.22,983.78 472.15,985.25 471.07,986.72 469.98,988.20 468.89,989.69 467.79,991.18 466.68,992.67 465.57,994.17 464.45,995.67 463.33,997.18 462.19,998.69 461.05,1000.21 459.91,1001.73 458.75,1003.26 457.59,1004.79 456.42,1006.33 455.24,1007.87 454.06,1009.42 452.87,1010.97 451.67,1012.52 450.46,1014.08 449.24,1015.65 448.02,1017.22 446.79,1018.80 445.55,1020.38 444.30,1021.96 443.04,1023.55 441.77,1025.15 440.50,1026.75 439.22,1028.35 437.92,1029.97 436.62,1031.58 435.31,1033.20 433.99,1034.83 432.66,1036.46 431.32,1038.10 429.97,1039.74 428.61,1041.39 427.24,1043.04 425.87,1044.70 424.48,1046.36 423.08,1048.03 421.67,1049.70 420.25,1051.38 418.82,1053.07 417.38,1054.76 415.93,1056.45 414.47,1058.16 413.00,1059.86 411.52,1061.57 410.02,1063.29 408.52,1065.02 407.00,1066.74 405.48,1068.48 403.94,1070.22 402.39,1071.97 400.82,1073.72 399.25,1075.47 397.66,1077.24 396.07,1079.01 394.46,1080.78 392.84,1082.56 391.20,1084.35 389.55,1086.14 387.90,1087.94 386.22,1089.74 384.54,1091.55 382.84,1093.37 381.13,1095.19 379.41,1097.01 377.67,1098.85 375.93,1100.69 374.16,1102.53 372.39,1104.38 370.60,1106.24 368.79,1108.11 366.98,1109.98 365.15,1111.85 363.30,1113.73 361.44,1115.62 359.57,1117.52 357.68,1119.42 355.78,1121.32 353.87,1123.24 351.94,1125.16 349.99,1127.08 348.03,1129.02 346.06,1130.96 344.07,1132.90 342.07,1134.85 340.05,1136.81 338.01,1138.78 335.96,1140.75 333.90,1142.73 331.81,1144.71 329.72,1146.70 327.61,1148.70 325.48,1150.70 323.33,1152.71 321.17,1154.73 318.99,1156.76 316.80,1158.79 314.59,1160.82 312.37,1162.87 310.12,1164.92 307.98,1166.87" type="driving"/>
    <lane id="-0_1" index="1" disallow="pedestrian tram rail_urban rail rail_electric rail_fast ship" speed="22.22" length="389.73" width="3.75" shape="554.48,865.59 554.13,866.01 553.18,867.18 552.23,868.35 551.28,869.51 550.34,870.69 549.40,871.86 548.46,873.04 547.52,874.22 546.59,875.40 545.66,876.58 544.73,877.77 543.81,878.96 542.89,880.15 541.96,881.34 541.05,882.54 540.13,883.74 539.21,884.94 538.30,886.15 537.39,887.35 536.48,888.56 535.57,889.78 534.66,890.99 533.75,892.21 532.85,893.43 531.94,894.66 531.04,895.88 530.14,897.11 529.23,898.35 528.33,899.58 527.43,900.82 526.53,902.06 525.63,903.31 524.73,904.56 523.83,905.81 522.93,907.06 522.03,908.32 521.12,909.58 520.22,910.84 519.32,912.11 518.42,913.38 517.51,914.66 516.61,915.93 515.70,917.21 514.80,918.50 513.89,919.78 512.98,921.07 512.07,922.37 511.16,923.66 510.25,924.96 509.33,926.27 508.42,927.58 507.50,928.89 506.58,930.20 505.65,931.52 504.73,932.84 503.80,934.17 502.87,935.50 501.94,936.83 501.01,938.17 500.07,939.51 499.13,940.85 498.19,942.20 497.24,943.55 496.29,944.91 495.34,946.27 494.39,947.63 493.43,949.00 492.47,950.37 491.50,951.74 490.53,953.12 489.56,954.51 488.58,955.89 487.60,957.28 486.61,958.68 485.62,960.08 484.63,961.48 483.63,962.89 482.63,964.30 481.62,965.71 480.61,967.13 479.59,968.56 478.57,969.99 477.54,971.42 476.51,972.86 475.47,974.30 474.42,975.74 473.38,977.19 472.32,978.65 471.26,980.10 470.20,981.57 469.12,983.04 468.05,984.51 466.96,985.98 465.87,987.46 464.77,988.95 463.67,990.44 462.56,991.93 461.45,993.43 460.32,994.94 459.19,996.44 458.06,997.96 456.91,999.47 455.76,1001.00 454.60,1002.52 453.44,1004.06 452.26,1005.59 451.08,1007.13 449.90,1008.68 448.70,1010.23 447.50,1011.79 446.28,1013.35 445.06,1014.91 443.84,1016.48 442.60,1018.06 441.35,1019.64 440.10,1021.22 438.84,1022.81 437.57,1024.41 436.29,1026.01 435.00,1027.62 433.70,1029.23 432.40,1030.84 431.08,1032.46 429.76,1034.09 428.42,1035.72 427.08,1037.36 425.72,1039.00 424.36,1040.65 422.99,1042.30 421.60,1043.96 420.21,1045.62 418.80,1047.29 417.39,1048.96 415.97,1050.64 414.53,1052.32 413.09,1054.01 411.63,1055.71 410.16,1057.41 408.69,1059.12 407.20,1060.83 405.70,1062.55 404.19,1064.27 402.66,1066.00 401.13,1067.73 399.59,1069.47 398.03,1071.22 396.46,1072.97 394.88,1074.73 393.29,1076.49 391.68,1078.26 390.07,1080.03 388.44,1081.81 386.80,1083.60 385.14,1085.39 383.48,1087.19 381.80,1088.99 380.11,1090.80 378.40,1092.62 376.68,1094.44 374.95,1096.27 373.21,1098.10 371.45,1099.94 369.68,1101.79 367.90,1103.64 366.10,1105.50 364.29,1107.36 362.47,1109.23 360.63,1111.11 358.77,1112.99 356.91,1114.88 355.03,1116.77 353.13,1118.67 351.22,1120.58 349.30,1122.50 347.36,1124.42 345.40,1126.34 343.43,1128.28 341.45,1130.22 339.45,1132.16 337.44,1134.12 335.41,1136.08 333.37,1138.04 331.31,1140.01 329.23,1141.99 327.14,1143.98 325.03,1145.97 322.91,1147.97 320.77,1149.98 318.62,1151.99 316.44,1154.01 314.26,1156.03 312.05,1158.06 309.83,1160.10 307.60,1162.15 305.45,1164.10" type="driving"/>
    <lane id="-0_2" index="2" disallow="pedestrian tram rail_urban rail rail_electric rail_fast ship" speed="22.22" length="389.73" width="3.75" shape="551.58,863.21 551.23,863.63 550.27,864.81 549.32,865.98 548.36,867.16 547.41,868.34 546.47,869.52 545.52,870.70 544.58,871.89 543.64,873.08 542.71,874.27 541.78,875.46 540.85,876.66 539.92,877.86 538.99,879.06 538.07,880.26 537.15,881.47 536.23,882.67 535.31,883.88 534.39,885.10 533.48,886.31 532.57,887.53 531.65,888.75 530.74,889.98 529.83,891.20 528.93,892.43 528.02,893.66 527.11,894.90 526.21,896.13 525.30,897.37 524.40,898.62 523.49,899.86 522.59,901.11 521.69,902.36 520.78,903.62 519.88,904.88 518.98,906.14 518.07,907.40 517.17,908.67 516.26,909.94 515.36,911.21 514.45,912.49 513.55,913.77 512.64,915.05 511.73,916.33 510.82,917.62 509.91,918.91 509.00,920.21 508.09,921.51 507.18,922.81 506.26,924.12 505.34,925.42 504.42,926.74 503.50,928.05 502.58,929.37 501.66,930.69 500.73,932.02 499.80,933.35 498.87,934.68 497.93,936.02 497.00,937.36 496.06,938.70 495.12,940.05 494.17,941.40 493.22,942.76 492.27,944.12 491.32,945.48 490.36,946.84 489.40,948.21 488.43,949.59 487.46,950.96 486.49,952.35 485.51,953.73 484.53,955.12 483.55,956.51 482.56,957.91 481.57,959.31 480.57,960.72 479.57,962.13 478.56,963.54 477.55,964.96 476.54,966.38 475.52,967.80 474.49,969.23 473.46,970.67 472.43,972.10 471.39,973.55 470.34,974.99 469.29,976.44 468.23,977.90 467.17,979.36 466.10,980.82 465.02,982.29 463.94,983.76 462.85,985.24 461.76,986.72 460.66,988.21 459.55,989.70 458.44,991.19 457.32,992.69 456.19,994.19 455.06,995.70 453.92,997.22 452.77,998.73 451.62,1000.26 450.46,1001.78 449.29,1003.31 448.11,1004.85 446.92,1006.39 445.73,1007.94 444.53,1009.49 443.32,1011.04 442.11,1012.60 440.88,1014.17 439.65,1015.74 438.41,1017.32 437.16,1018.90 435.90,1020.48 434.64,1022.07 433.36,1023.67 432.08,1025.27 430.78,1026.87 429.48,1028.48 428.17,1030.10 426.85,1031.72 425.52,1033.34 424.18,1034.97 422.83,1036.61 421.47,1038.25 420.10,1039.90 418.73,1041.55 417.34,1043.21 415.94,1044.87 414.53,1046.54 413.11,1048.21 411.68,1049.89 410.24,1051.57 408.79,1053.26 407.33,1054.96 405.85,1056.66 404.37,1058.37 402.88,1060.08 401.37,1061.79 399.85,1063.52 398.32,1065.25 396.78,1066.98 395.23,1068.72 393.67,1070.46 392.09,1072.22 390.51,1073.97 388.91,1075.74 387.30,1077.50 385.67,1079.28 384.04,1081.06 382.39,1082.84 380.73,1084.64 379.06,1086.43 377.37,1088.24 375.67,1090.05 373.96,1091.86 372.23,1093.69 370.50,1095.51 368.74,1097.35 366.98,1099.19 365.20,1101.03 363.41,1102.88 361.60,1104.74 359.78,1106.61 357.95,1108.48 356.10,1110.36 354.24,1112.24 352.37,1114.13 350.48,1116.02 348.57,1117.93 346.65,1119.84 344.72,1121.75 342.77,1123.67 340.81,1125.60 338.83,1127.53 336.84,1129.47 334.83,1131.42 332.81,1133.38 330.77,1135.34 328.71,1137.30 326.64,1139.28 324.56,1141.26 322.46,1143.24 320.34,1145.24 318.21,1147.24 316.06,1149.24 313.89,1151.26 311.71,1153.28 309.51,1155.31 307.30,1157.34 305.07,1159.38 302.93,1161.33" type="driving"/>
  </edge>
  <edge id="-1" from="1.0" to="1.end" priority="1" type="driving" shape="301.56,1160.04 299.11,1162.26 296.68,1164.45 294.27,1166.63 291.86,1168.78 289.48,1170.91 287.10,1173.01 284.74,1175.10 282.40,1177.16 280.07,1179.20 277.75,1181.22 275.45,1183.22 273.16,1185.19 270.88,1187.15 268.62,1189.08 266.37,1191.00 264.13,1192.89 261.91,1194.77 259.70,1196.62 257.50,1198.46 255.31,1200.27 253.14,1202.07 250.98,1203.84 248.84,1205.60 246.70,1207.33 244.58,1209.05 242.47,1210.75 240.38,1212.43 238.29,1214.10 236.22,1215.74 234.16,1217.37 232.11,1218.98 230.07,1220.57 228.05,1222.15 226.03,1223.70 224.03,1225.24 222.04,1226.77 220.06,1228.27 218.09,1229.76 216.13,1231.23 214.18,1232.69 212.25,1234.13 210.32,1235.56 208.41,1236.97 206.50,1238.36 204.61,1239.74 202.72,1241.10 200.85,1242.45 198.99,1243.79 197.13,1245.11 195.29,1246.41 193.46,1247.70 191.63,1248.98 189.82,1250.24 188.01,1251.49 186.22,1252.72 184.43,1253.94 182.66,1255.15 180.89,1256.35 179.13,1257.53 177.38,1258.70 175.64,1259.86 173.91,1261.00 172.19,1262.13 170.47,1263.25 168.77,1264.36 167.07,1265.46 165.38,1266.54 163.70,1267.62 162.03,1268.68 160.36,1269.73 158.71,1270.77 157.06,1271.80 155.42,1272.82 153.78,1273.83 152.16,1274.83 150.54,1275.82 148.93,1276.80 147.33,1277.77 145.73,1278.73 144.14,1279.68 142.56,1280.63 140.98,1281.56 139.41,1282.48 137.85,1283.40 136.29,1284.31 134.74,1285.21 133.20,1286.10 131.66,1286.98 130.13,1287.86 128.61,1288.73 127.09,1289.59 125.58,1290.44 124.07,1291.29 122.57,1292.13 121.07,1292.96 119.58,1293.79 118.10,1294.61 116.62,1295.43 115.14,1296.24 113.67,1297.04 112.21,1297.84 110.75,1298.63 109.30,1299.42 107.85,1300.20 106.40,1300.97 104.96,1301.75 103.52,1302.51 102.09,1303.28 100.67,1304.04 99.24,1304.79 97.82,1305.54 96.41,1306.29 94.99,1307.03 93.59,1307.77 92.18,1308.51 90.78,1309.25 89.38,1309.98 87.99,1310.71 86.60,1311.43 85.21,1312.16 83.83,1312.88 82.45,1313.60 81.07,1314.32 79.69,1315.03 78.32,1315.75 76.95,1316.46 75.58,1317.18 74.21,1317.89 72.85,1318.60 71.49,1319.31 70.13,1320.02 68.77,1320.73 67.42,1321.44 66.06,1322.15 64.71,1322.86 63.36,1323.58 62.01,1324.29 60.67,1325.00 59.32,1325.72 57.98,1326.43 56.63,1327.15 55.29,1327.86 53.95,1328.58 52.61,1329.31 51.27,1330.03 49.93,1330.76 48.59,1331.48 47.25,1332.22 45.91,1332.95 44.57,1333.69 43.24,1334.43 41.90,1335.17 40.56,1335.91 39.22,1336.66 37.88,1337.42 36.55,1338.18 35.21,1338.94 33.87,1339.71 32.53,1340.48 31.19,1341.25 29.84,1342.03 28.50,1342.82 27.16,1343.61 25.81,1344.40 24.47,1345.21 23.12,1346.01 21.77,1346.83 20.42,1347.65 19.07,1348.47 17.72,1349.30 16.36,1350.14 15.01,1350.99 13.65,1351.84 12.29,1352.70 10.92,1353.57 9.56,1354.44 8.19,1355.32 6.82,1356.21 5.44,1357.11 4.07,1358.01 2.69,1358.93">