<?xml version='1.0' encoding='UTF-8'?>
<!-- generated on 2022-09-06 03:23:35 by Eclipse SUMO netconvert Version 1.13.0
<configuration xmlns:xsi="http://www.w3.org/2001/XMLSchema-instance" xsi:noNamespaceSchemaLocation="http://sumo.dlr.de/xsd/netconvertConfiguration.xsd">

    <input>
        <opendrive-files value="map\16\11367357\11367357.xodr"/>
    </input>

    <output>
        <output-file value="C:\Users\LinGe\AppData\Local\Temp\tmpwfhz_ho1\11367357.net.xml"/>
    </output>

    <processing>
        <geometry.max-grade.fix value="false"/>
    </processing>

    <tls_building>
        <tls.left-green.time value="0"/>
    </tls_building>

    <junctions>
        <rectangular-lane-cut value="true"/>
    </junctions>

    <report>
        <aggregate-warnings value="5"/>
    </report>

</configuration>
-->
<net xmlns:xsi="http://www.w3.org/2001/XMLSchema-instance" version="1.9" junctionCornerDetail="5" rectangularLaneCut="true" limitTurnSpeed="5.50" xsi:noNamespaceSchemaLocation="http://sumo.dlr.de/xsd/net_file.xsd">
  <location netOffset="301.35,172.29" convBoundary="0.00,0.00,1172.48,1373.77" origBoundary="-301.35,-172.29,871.13,1201.48" projParameter="!"/>
  <type id="bidirectional" priority="1" speed="1.39" disallow="pedestrian tram rail_urban rail rail_electric rail_fast ship" width="3.65"/>
  <type id="border" priority="0" speed="1.39" disallow="all" discard="1" width="0.10"/>
  <type id="driving" priority="1" speed="13.89" disallow="pedestrian tram rail_urban rail rail_electric rail_fast ship" width="3.65"/>
  <type id="entry" priority="1" speed="22.22" disallow="pedestrian tram rail_urban rail rail_electric rail_fast ship" width="3.65"/>
  <type id="exit" priority="1" speed="22.22" disallow="pedestrian tram rail_urban rail rail_electric rail_fast ship" width="3.65"/>
  <type id="median" priority="0" speed="1.39" disallow="all" discard="1" width="0.10"/>
  <type id="mwyEntry" priority="1" speed="22.22" allow="private emergency authority army vip passenger hov taxi bus coach delivery truck trailer motorcycle evehicle custom1 custom2" width="3.65"/>
  <type id="mwyExit" priority="1" speed="22.22" allow="private emergency authority army vip passenger hov taxi bus coach delivery truck trailer motorcycle evehicle custom1 custom2" width="3.65"/>
  <type id="none" priority="0" speed="1.39" disallow="all" discard="1" width="1.00"/>
  <type id="offRamp" priority="1" speed="22.22" allow="private emergency authority army vip passenger hov taxi bus coach delivery truck trailer motorcycle evehicle custom1 custom2" width="3.65"/>
  <type id="onRamp" priority="1" speed="22.22" allow="private emergency authority army vip passenger hov taxi bus coach delivery truck trailer motorcycle evehicle custom1 custom2" width="3.65"/>
  <type id="parking" priority="1" speed="1.39" disallow="pedestrian tram rail_urban rail rail_electric rail_fast ship" width="2.50"/>
  <type id="rail" priority="3" speed="33.33" allow="rail_urban rail rail_electric rail_fast" width="3.65"/>
  <type id="restricted" priority="0" speed="13.89" disallow="all" width="3.65"/>
  <type id="roadWorks" priority="0" speed="1.39" allow="authority" width="3.65"/>
  <type id="shoulder" priority="0" speed="1.39" disallow="all" discard="1" width="1.00"/>
  <type id="special1" priority="1" speed="22.22" allow="custom1" discard="1" width="3.65"/>
  <type id="special2" priority="1" speed="22.22" allow="custom2" discard="1" width="3.65"/>
  <type id="special3" priority="1" speed="22.22" allow="custom1 custom2" discard="1" width="3.65"/>
  <type id="stop" priority="1" speed="13.89" disallow="pedestrian tram rail_urban rail rail_electric rail_fast ship" width="3.65"/>
  <type id="tram" priority="2" speed="13.89" allow="tram" width="3.65"/>
  <edge id=":0_0" function="internal">
    <lane id=":0_0_0" index="0" disallow="pedestrian tram rail_urban rail rail_electric rail_fast ship" speed="15.28" length="7.93" width="3.75" shape="540.25,867.89 545.26,861.75,0.00"/>
  </edge>
  <edge id=":1_0" function="internal">
    <lane id=":1_0_0" index="0" disallow="pedestrian tram rail_urban rail rail_electric rail_fast ship" speed="11.70" length="14.54" width="3.75" shape="521.98,358.65,20.00 525.05,360.71,20.00 528.35,361.98,20.00 531.87,362.47,20.00 535.61,362.17,20.00"/>
  </edge>
  <edge id=":1_1" function="internal">
    <lane id=":1_1_0" index="0" disallow="pedestrian tram rail_urban rail rail_electric rail_fast ship" speed="22.22" length="15.44" width="3.75" shape="521.98,358.65,20.00 533.86,368.53,20.00"/>
    <lane id=":1_1_1" index="1" disallow="pedestrian tram rail_urban rail rail_electric rail_fast ship" speed="22.22" length="15.44" width="3.75" shape="519.59,361.54,20.00 531.46,371.41,20.00"/>
    <lane id=":1_1_2" index="2" disallow="pedestrian tram rail_urban rail rail_electric rail_fast ship" speed="22.22" length="15.44" width="3.75" shape="517.20,364.43,20.00 529.06,374.29,20.00"/>
  </edge>
  <edge id=":1.0_0" function="internal">
    <lane id=":1.0_0_0" index="0" disallow="pedestrian tram rail_urban rail rail_electric rail_fast ship" speed="22.22" length="0.30" width="3.75" shape="308.02,1181.69 307.80,1181.90"/>
    <lane id=":1.0_0_1" index="1" disallow="pedestrian tram rail_urban rail rail_electric rail_fast ship" speed="22.22" length="0.30" width="3.75" shape="305.50,1178.92 305.28,1179.12"/>
    <lane id=":1.0_0_2" index="2" disallow="pedestrian tram rail_urban rail rail_electric rail_fast ship" speed="22.22" length="0.30" width="3.75" shape="302.97,1176.14 302.76,1176.34"/>
  </edge>
  <edge id=":13.12_0" function="internal">
    <lane id=":13.12_0_0" index="0" disallow="pedestrian tram rail_urban rail rail_electric rail_fast ship" speed="8.33" length="0.30" width="3.75" shape="819.01,190.04,10.18 819.02,189.74,10.19"/>
  </edge>
  <edge id=":16.15_0" function="internal">
    <lane id=":16.15_0_0" index="0" disallow="pedestrian tram rail_urban rail rail_electric rail_fast ship" speed="8.33" length="0.28" width="3.75" shape="1172.70,344.62,10.14 1172.72,344.89,10.14"/>
  </edge>
  <edge id=":19.18_0" function="internal">
    <lane id=":19.18_0_0" index="0" disallow="pedestrian tram rail_urban rail rail_electric rail_fast ship" speed="11.11" length="0.29" width="3.75" shape="273.72,1118.53,18.76 273.87,1118.79,18.76"/>
  </edge>
  <edge id=":2_0" function="internal">
    <lane id=":2_0_0" index="0" disallow="pedestrian tram rail_urban rail rail_electric rail_fast ship" speed="20.83" length="63.57" width="3.75" shape="858.58,747.11,20.00 848.81,735.02,19.99 835.76,719.89,19.97 823.75,706.33,19.96 817.10,698.95,19.95"/>
  </edge>
  <edge id=":2_1" function="internal">
    <lane id=":2_1_0" index="0" disallow="pedestrian tram rail_urban rail rail_electric rail_fast ship" speed="22.22" length="63.53" width="3.75" shape="858.58,747.11,20.00 820.35,696.46,20.00"/>
    <lane id=":2_1_1" index="1" disallow="pedestrian tram rail_urban rail rail_electric rail_fast ship" speed="22.22" length="63.53" width="3.75" shape="861.59,744.87,20.00 823.32,694.17,20.00"/>
    <lane id=":2_1_2" index="2" disallow="pedestrian tram rail_urban rail rail_electric rail_fast ship" speed="22.22" length="63.53" width="3.75" shape="864.61,742.64,20.00 826.29,691.88,20.00"/>
  </edge>
  <edge id=":21.20_0" function="internal">
    <lane id=":21.20_0_0" index="0" disallow="pedestrian tram rail_urban rail rail_electric rail_fast ship" speed="19.44" length="0.30" width="3.75" shape="660.71,109.19,14.54 660.90,108.96,14.53"/>
  </edge>
  <edge id=":3_0" function="internal">
    <lane id=":3_0_0" index="0" disallow="pedestrian tram rail_urban rail rail_electric rail_fast ship" speed="15.28" length="28.25" width="3.75" shape="565.67,387.71,19.88 567.68,391.84,19.90 570.94,397.13,19.92 575.80,403.30,19.96 582.62,410.03,20.00"/>
  </edge>
  <edge id=":3_1" function="internal">
    <lane id=":3_1_0" index="0" disallow="pedestrian tram rail_urban rail rail_electric rail_fast ship" speed="22.22" length="27.05" width="3.75" shape="562.11,392.34,20.00 582.62,410.03,20.00"/>
    <lane id=":3_1_1" index="1" disallow="pedestrian tram rail_urban rail rail_electric rail_fast ship" speed="22.22" length="27.05" width="3.75" shape="559.67,395.20,20.00 580.16,412.85,20.00"/>
    <lane id=":3_1_2" index="2" disallow="pedestrian tram rail_urban rail rail_electric rail_fast ship" speed="22.22" length="27.05" width="3.75" shape="557.24,398.05,20.00 577.70,415.68,20.00"/>
  </edge>
  <edge id=":3.2_0" function="internal">
    <lane id=":3.2_0_0" index="0" disallow="pedestrian tram rail_urban rail rail_electric rail_fast ship" speed="22.22" length="0.30" width="3.75" shape="292.50,1165.06 292.72,1164.86"/>
    <lane id=":3.2_0_1" index="1" disallow="pedestrian tram rail_urban rail rail_electric rail_fast ship" speed="22.22" length="0.30" width="3.75" shape="295.02,1167.83 295.24,1167.63"/>
    <lane id=":3.2_0_2" index="2" disallow="pedestrian tram rail_urban rail rail_electric rail_fast ship" speed="22.22" length="0.30" width="3.75" shape="297.54,1170.61 297.77,1170.40"/>
  </edge>
  <edge id=":4_0" function="internal">
    <lane id=":4_0_0" index="0" disallow="pedestrian tram rail_urban rail rail_electric rail_fast ship" speed="8.33" length="24.15" width="3.75" shape="567.18,284.77,17.81 562.18,308.39,17.84"/>
  </edge>
  <edge id=":4_1" function="internal">
    <lane id=":4_1_0" index="0" disallow="pedestrian tram rail_urban rail rail_electric rail_fast ship" speed="9.72" length="24.84" width="3.75" shape="567.18,284.77,17.81 565.53,289.78,17.82 562.92,296.41,17.83 560.13,302.98,17.84 557.96,307.81,17.84"/>
  </edge>
  <edge id=":5_0" function="internal">
    <lane id=":5_0_0" index="0" disallow="pedestrian tram rail_urban rail rail_electric rail_fast ship" speed="15.28" length="8.11" width="3.75" shape="562.76,876.76,0.00 561.05,878.46,0.00 559.94,879.67,0.00 558.89,880.95,0.00 557.37,882.82"/>
  </edge>
  <edge id=":6_0" function="internal">
    <lane id=":6_0_0" index="0" disallow="pedestrian tram rail_urban rail rail_electric rail_fast ship" speed="16.67" length="8.00" width="3.75" shape="701.38,554.91,20.00 695.89,549.09,20.00"/>
  </edge>
  <edge id=":6_1" function="internal">
    <lane id=":6_1_0" index="0" disallow="pedestrian tram rail_urban rail rail_electric rail_fast ship" speed="22.22" length="8.01" width="3.75" shape="701.38,554.90,20.00 695.89,549.09,20.00"/>
    <lane id=":6_1_1" index="1" disallow="pedestrian tram rail_urban rail rail_electric rail_fast ship" speed="22.22" length="8.01" width="3.75" shape="704.11,552.33,20.00 698.61,546.51,20.00"/>
    <lane id=":6_1_2" index="2" disallow="pedestrian tram rail_urban rail rail_electric rail_fast ship" speed="22.22" length="8.01" width="3.75" shape="706.84,549.76,20.00 701.32,543.93,20.00"/>
  </edge>
  <edge id=":7_0" function="internal">
    <lane id=":7_0_0" index="0" disallow="pedestrian tram rail_urban rail rail_electric rail_fast ship" speed="8.33" length="63.41" width="3.75" shape="1148.83,401.21,8.00 1141.61,409.92,8.00 1128.35,425.40,7.99 1114.98,440.81,7.98 1107.47,449.26,7.97"/>
  </edge>
  <edge id=":7_1" function="internal">
    <lane id=":7_1_0" index="0" disallow="pedestrian tram rail_urban rail rail_electric rail_fast ship" speed="13.89" length="63.51" width="3.75" shape="1145.84,398.68,8.05 1139.29,407.91,8.03 1127.03,424.25,8.01 1114.59,440.46,7.99 1107.47,449.26,7.97"/>
  </edge>
  <edge id=":7.6_0" function="internal">
    <lane id=":7.6_0_0" index="0" disallow="pedestrian tram rail_urban rail rail_electric rail_fast ship" speed="22.22" length="0.30" width="3.75" shape="754.89,580.00,20.00 755.09,580.23,20.00"/>
    <lane id=":7.6_0_1" index="1" disallow="pedestrian tram rail_urban rail rail_electric rail_fast ship" speed="22.22" length="0.30" width="3.75" shape="752.07,582.47,20.00 752.27,582.70,20.00"/>
    <lane id=":7.6_0_2" index="2" disallow="pedestrian tram rail_urban rail rail_electric rail_fast ship" speed="22.22" length="0.30" width="3.75" shape="749.25,584.95,20.00 749.44,585.17,20.00"/>
  </edge>
  <edge id=":9.10_0" function="internal">
    <lane id=":9.10_0_0" index="0" disallow="pedestrian tram rail_urban rail rail_electric rail_fast ship" speed="22.22" length="0.30" width="3.75" shape="737.97,595.21,20.00 737.77,594.99,20.00"/>
    <lane id=":9.10_0_1" index="1" disallow="pedestrian tram rail_urban rail rail_electric rail_fast ship" speed="22.22" length="0.30" width="3.75" shape="740.79,592.74,20.00 740.59,592.52,20.00"/>
    <lane id=":9.10_0_2" index="2" disallow="pedestrian tram rail_urban rail rail_electric rail_fast ship" speed="22.22" length="0.30" width="3.75" shape="743.61,590.28,20.00 743.41,590.05,20.00"/>
  </edge>
  <edge id="-0" from="5" to="1.0" priority="1" type="driving" shape="552.69,873.77 551.72,874.94 550.75,876.12 549.78,877.29 548.82,878.47 547.86,879.65 546.90,880.83 545.95,882.01 545.00,883.20 544.06,884.38 543.11,885.57 542.17,886.77 541.23,887.96 540.30,889.16 539.37,890.36 538.44,891.56 537.51,892.76 536.58,893.97 535.66,895.17 534.74,896.39 533.82,897.60 532.90,898.81 531.98,900.03 531.07,901.25 530.15,902.48 529.24,903.70 528.33,904.93 527.42,906.16 526.51,907.40 525.60,908.63 524.70,909.87 523.79,911.12 522.88,912.36 521.98,913.61 521.07,914.86 520.17,916.11 519.27,917.37 518.36,918.63 517.46,919.89 516.55,921.16 515.65,922.42 514.74,923.69 513.84,924.97 512.93,926.25 512.02,927.53 511.12,928.81 510.21,930.10 509.30,931.39 508.39,932.68 507.48,933.97 506.57,935.27 505.65,936.58 504.74,937.88 503.82,939.19 502.90,940.50 501.98,941.82 501.06,943.14 500.13,944.46 499.20,945.79 498.27,947.12 497.34,948.45 496.41,949.79 495.47,951.13 494.53,952.47 493.59,953.82 492.65,955.17 491.70,956.52 490.75,957.88 489.79,959.24 488.84,960.61 487.88,961.97 486.91,963.35 485.94,964.72 484.97,966.10 484.00,967.49 483.02,968.88 482.04,970.27 481.05,971.66 480.06,973.06 479.06,974.47 478.06,975.87 477.06,977.29 476.05,978.70 475.03,980.12 474.01,981.55 472.99,982.97 471.96,984.41 470.93,985.84 469.89,987.28 468.84,988.73 467.79,990.18 466.74,991.63 465.67,993.09 464.61,994.55 463.53,996.01 462.45,997.48 461.37,998.96 460.28,1000.44 459.18,1001.92 458.07,1003.41 456.96,1004.90 455.84,1006.40 454.72,1007.90 453.59,1009.41 452.45,1010.92 451.30,1012.43 450.15,1013.95 448.99,1015.48 447.82,1017.00 446.65,1018.54 445.47,1020.08 444.28,1021.62 443.08,1023.17 441.87,1024.72 440.66,1026.28 439.44,1027.84 438.21,1029.41 436.97,1030.98 435.72,1032.56 434.47,1034.14 433.20,1035.73 431.93,1037.32 430.65,1038.92 429.36,1040.52 428.06,1042.13 426.75,1043.74 425.43,1045.36 424.10,1046.98 422.77,1048.61 421.42,1050.24 420.06,1051.88 418.70,1053.52 417.32,1055.17 415.94,1056.82 414.54,1058.48 413.13,1060.15 411.72,1061.82 410.29,1063.49 408.85,1065.18 407.40,1066.86 405.95,1068.55 404.48,1070.25 403.00,1071.95 401.50,1073.66 400.00,1075.38 398.49,1077.10 396.96,1078.82 395.42,1080.55 393.87,1082.29 392.31,1084.03 390.74,1085.78 389.16,1087.53 387.56,1089.29 385.95,1091.06 384.33,1092.83 382.70,1094.61 381.05,1096.39 379.40,1098.18 377.73,1099.97 376.04,1101.77 374.35,1103.58 372.64,1105.39 370.92,1107.21 369.18,1109.04 367.43,1110.87 365.67,1112.70 363.90,1114.55 362.11,1116.40 360.30,1118.25 358.49,1120.11 356.66,1121.98 354.81,1123.86 352.96,1125.74 351.08,1127.62 349.20,1129.51 347.30,1131.41 345.38,1133.32 343.45,1135.23 341.50,1137.15 339.54,1139.08 337.57,1141.01 335.58,1142.94 333.57,1144.89 331.55,1146.84 329.52,1148.80 327.47,1150.76 325.40,1152.73 323.32,1154.71 321.22,1156.69 319.10,1158.68 316.97,1160.68 314.83,1162.69 312.66,1164.70 310.49,1166.72 308.29,1168.74 306.08,1170.77 303.85,1172.81 301.60,1174.86">
    <lane id="-0_0" index="0" disallow="pedestrian tram rail_urban rail rail_electric rail_fast ship" speed="22.22" length="389.68" width="3.75" shape="557.37,882.82 557.03,883.24 556.08,884.39 555.14,885.55 554.20,886.72 553.26,887.88 552.33,889.05 551.40,890.22 550.47,891.39 549.54,892.56 548.61,893.74 547.69,894.92 546.77,896.10 545.85,897.29 544.94,898.48 544.02,899.67 543.11,900.86 542.20,902.06 541.29,903.26 540.39,904.46 539.48,905.66 538.57,906.87 537.67,908.08 536.77,909.29 535.87,910.51 534.97,911.73 534.06,912.95 533.17,914.18 532.27,915.40 531.37,916.64 530.47,917.87 529.57,919.11 528.67,920.35 527.78,921.59 526.88,922.84 525.98,924.09 525.08,925.35 524.18,926.60 523.28,927.86 522.38,929.13 521.48,930.40 520.58,931.67 519.68,932.94 518.77,934.22 517.87,935.50 516.96,936.79 516.06,938.07 515.15,939.37 514.24,940.66 513.33,941.96 512.41,943.26 511.50,944.57 510.58,945.88 509.66,947.19 508.74,948.51 507.81,949.83 506.89,951.16 505.96,952.49 505.03,953.82 504.09,955.16 503.16,956.50 502.22,957.84 501.27,959.19 500.33,960.54 499.38,961.90 498.43,963.26 497.47,964.62 496.51,965.99 495.55,967.36 494.58,968.74 493.61,970.12 492.64,971.50 491.66,972.89 490.68,974.28 489.69,975.68 488.70,977.08 487.71,978.49 486.71,979.89 485.70,981.31 484.69,982.73 483.68,984.15 482.66,985.57 481.63,987.01 480.61,988.44 479.57,989.88 478.53,991.32 477.49,992.77 476.43,994.23 475.38,995.68 474.32,997.14 473.25,998.61 472.17,1000.08 471.09,1001.56 470.01,1003.04 468.91,1004.52 467.81,1006.01 466.71,1007.50 465.60,1009.00 464.48,1010.50 463.35,1012.01 462.22,1013.52 461.08,1015.04 459.93,1016.56 458.78,1018.09 457.62,1019.62 456.45,1021.16 455.27,1022.70 454.09,1024.24 452.90,1025.80 451.70,1027.35 450.49,1028.91 449.27,1030.48 448.05,1032.05 446.82,1033.62 445.58,1035.20 444.33,1036.79 443.07,1038.38 441.81,1039.97 440.53,1041.57 439.25,1043.18 437.96,1044.79 436.65,1046.41 435.34,1048.03 434.02,1049.65 432.69,1051.29 431.35,1052.92 430.01,1054.56 428.65,1056.21 427.28,1057.86 425.90,1059.52 424.51,1061.18 423.12,1062.85 421.71,1064.53 420.29,1066.21 418.86,1067.89 417.42,1069.58 415.97,1071.28 414.51,1072.98 413.04,1074.68 411.56,1076.40 410.06,1078.11 408.56,1079.84 407.04,1081.56 405.52,1083.30 403.98,1085.04 402.43,1086.79 400.86,1088.54 399.29,1090.29 397.71,1092.06 396.11,1093.82 394.50,1095.60 392.88,1097.38 391.24,1099.17 389.60,1100.96 387.94,1102.75 386.27,1104.56 384.58,1106.37 382.89,1108.18 381.18,1110.00 379.45,1111.83 377.72,1113.66 375.97,1115.50 374.21,1117.35 372.43,1119.20 370.64,1121.06 368.84,1122.92 367.02,1124.79 365.19,1126.67 363.35,1128.55 361.49,1130.44 359.62,1132.33 357.73,1134.23 355.83,1136.14 353.91,1138.05 351.98,1139.97 350.04,1141.90 348.08,1143.83 346.11,1145.77 344.12,1147.72 342.11,1149.67 340.09,1151.63 338.06,1153.59 336.01,1155.56 333.94,1157.54 331.86,1159.52 329.76,1161.52 327.65,1163.51 325.52,1165.52 323.38,1167.53 321.22,1169.55 319.04,1171.57 316.85,1173.60 314.64,1175.64 312.41,1177.68 310.17,1179.73 308.02,1181.69" type="driving"/>
    <lane id="-0_1" index="1" disallow="pedestrian tram rail_urban rail rail_electric rail_fast ship" speed="22.22" length="389.68" width="3.75" shape="554.48,880.44 554.13,880.86 553.18,882.02 552.23,883.19 551.28,884.36 550.34,885.53 549.40,886.71 548.46,887.88 547.52,889.06 546.59,890.25 545.66,891.43 544.74,892.62 543.81,893.80 542.89,895.00 541.97,896.19 541.05,897.39 540.13,898.59 539.22,899.79 538.30,900.99 537.39,902.20 536.48,903.41 535.57,904.62 534.66,905.84 533.76,907.06 532.85,908.28 531.95,909.50 531.04,910.73 530.14,911.96 529.24,913.19 528.34,914.43 527.44,915.67 526.53,916.91 525.63,918.15 524.73,919.40 523.83,920.65 522.93,921.91 522.03,923.16 521.13,924.42 520.23,925.69 519.33,926.95 518.42,928.23 517.52,929.50 516.62,930.78 515.71,932.06 514.81,933.34 513.90,934.63 512.99,935.92 512.08,937.21 511.17,938.51 510.26,939.81 509.34,941.11 508.42,942.42 507.51,943.73 506.59,945.04 505.66,946.36 504.74,947.68 503.81,949.01 502.89,950.34 501.95,951.67 501.02,953.01 500.08,954.35 499.14,955.69 498.20,957.04 497.26,958.39 496.31,959.75 495.36,961.11 494.40,962.47 493.44,963.84 492.48,965.21 491.52,966.58 490.55,967.96 489.57,969.34 488.60,970.73 487.61,972.12 486.63,973.51 485.64,974.91 484.65,976.32 483.65,977.72 482.65,979.13 481.64,980.55 480.63,981.97 479.61,983.39 478.59,984.82 477.56,986.25 476.53,987.69 475.49,989.13 474.45,990.58 473.40,992.03 472.34,993.48 471.28,994.94 470.22,996.40 469.15,997.87 468.07,999.34 466.98,1000.82 465.89,1002.30 464.80,1003.78 463.70,1005.27 462.59,1006.76 461.47,1008.26 460.35,1009.77 459.22,1011.27 458.08,1012.79 456.94,1014.30 455.79,1015.83 454.63,1017.35 453.47,1018.88 452.29,1020.42 451.11,1021.96 449.92,1023.51 448.73,1025.06 447.53,1026.61 446.31,1028.17 445.09,1029.74 443.87,1031.31 442.63,1032.88 441.39,1034.47 440.13,1036.05 438.87,1037.64 437.60,1039.24 436.32,1040.84 435.03,1042.44 433.74,1044.05 432.43,1045.67 431.11,1047.29 429.79,1048.91 428.45,1050.54 427.11,1052.18 425.76,1053.82 424.39,1055.47 423.02,1057.12 421.64,1058.78 420.24,1060.44 418.84,1062.11 417.43,1063.78 416.00,1065.46 414.57,1067.15 413.12,1068.84 411.67,1070.53 410.20,1072.23 408.72,1073.94 407.24,1075.65 405.74,1077.37 404.23,1079.09 402.70,1080.82 401.17,1082.55 399.63,1084.29 398.07,1086.04 396.50,1087.79 394.92,1089.55 393.33,1091.31 391.72,1093.08 390.11,1094.85 388.48,1096.63 386.84,1098.42 385.18,1100.21 383.52,1102.01 381.84,1103.81 380.15,1105.62 378.44,1107.43 376.73,1109.26 375.00,1111.08 373.25,1112.92 371.50,1114.76 369.73,1116.60 367.94,1118.45 366.15,1120.31 364.34,1122.18 362.51,1124.05 360.67,1125.92 358.82,1127.80 356.95,1129.69 355.07,1131.59 353.18,1133.49 351.27,1135.40 349.34,1137.31 347.40,1139.23 345.45,1141.16 343.48,1143.09 341.50,1145.03 339.50,1146.98 337.48,1148.93 335.46,1150.89 333.41,1152.86 331.35,1154.83 329.28,1156.81 327.19,1158.79 325.08,1160.79 322.96,1162.78 320.82,1164.79 318.66,1166.80 316.49,1168.82 314.30,1170.85 312.10,1172.88 309.88,1174.92 307.64,1176.96 305.50,1178.92" type="driving"/>
    <lane id="-0_2" index="2" disallow="pedestrian tram rail_urban rail rail_electric rail_fast ship" speed="22.22" length="389.68" width="3.75" shape="551.58,878.06 551.23,878.48 550.27,879.65 549.32,880.83 548.36,882.01 547.41,883.19 546.47,884.37 545.52,885.55 544.58,886.74 543.65,887.93 542.71,889.12 541.78,890.31 540.85,891.50 539.92,892.70 538.99,893.90 538.07,895.11 537.15,896.31 536.23,897.52 535.31,898.73 534.40,899.94 533.48,901.16 532.57,902.38 531.66,903.60 530.75,904.82 529.84,906.05 528.93,907.28 528.02,908.51 527.12,909.74 526.21,910.98 525.31,912.22 524.40,913.46 523.50,914.71 522.59,915.96 521.69,917.21 520.79,918.46 519.88,919.72 518.98,920.98 518.08,922.24 517.17,923.51 516.27,924.78 515.37,926.05 514.46,927.33 513.56,928.61 512.65,929.89 511.74,931.18 510.83,932.47 509.92,933.76 509.01,935.05 508.10,936.35 507.19,937.65 506.27,938.96 505.35,940.27 504.43,941.58 503.51,942.89 502.59,944.21 501.67,945.53 500.74,946.86 499.81,948.19 498.88,949.52 497.95,950.86 497.01,952.20 496.07,953.54 495.13,954.89 494.18,956.24 493.24,957.60 492.28,958.95 491.33,960.32 490.37,961.68 489.41,963.05 488.45,964.42 487.48,965.80 486.51,967.18 485.53,968.57 484.55,969.96 483.57,971.35 482.58,972.75 481.59,974.15 480.59,975.55 479.59,976.96 478.58,978.37 477.57,979.79 476.56,981.21 475.54,982.64 474.51,984.07 473.48,985.50 472.45,986.94 471.41,988.38 470.36,989.83 469.31,991.28 468.25,992.73 467.19,994.19 466.12,995.65 465.04,997.12 463.96,998.59 462.88,1000.07 461.78,1001.55 460.68,1003.04 459.58,1004.53 458.46,1006.02 457.35,1007.52 456.22,1009.02 455.09,1010.53 453.95,1012.05 452.80,1013.56 451.64,1015.08 450.48,1016.61 449.31,1018.14 448.14,1019.68 446.95,1021.22 445.76,1022.77 444.56,1024.32 443.35,1025.87 442.14,1027.43 440.91,1029.00 439.68,1030.57 438.44,1032.14 437.19,1033.72 435.94,1035.31 434.67,1036.90 433.39,1038.49 432.11,1040.09 430.82,1041.70 429.52,1043.31 428.20,1044.92 426.88,1046.54 425.55,1048.17 424.22,1049.80 422.87,1051.43 421.51,1053.08 420.14,1054.72 418.76,1056.37 417.37,1058.03 415.97,1059.69 414.57,1061.36 413.15,1063.03 411.72,1064.71 410.28,1066.40 408.83,1068.08 407.36,1069.78 405.89,1071.48 404.41,1073.19 402.91,1074.90 401.41,1076.61 399.89,1078.34 398.36,1080.07 396.82,1081.80 395.27,1083.54 393.71,1085.28 392.13,1087.03 390.55,1088.79 388.95,1090.55 387.34,1092.32 385.71,1094.10 384.08,1095.88 382.43,1097.66 380.77,1099.45 379.10,1101.25 377.41,1103.06 375.71,1104.87 374.00,1106.68 372.28,1108.50 370.54,1110.33 368.79,1112.16 367.02,1114.00 365.25,1115.85 363.45,1117.70 361.65,1119.56 359.83,1121.42 358.00,1123.29 356.15,1125.17 354.29,1127.05 352.41,1128.94 350.52,1130.84 348.62,1132.74 346.70,1134.65 344.77,1136.57 342.82,1138.49 340.86,1140.41 338.88,1142.35 336.89,1144.29 334.88,1146.24 332.85,1148.19 330.82,1150.15 328.76,1152.12 326.69,1154.09 324.61,1156.07 322.50,1158.06 320.39,1160.05 318.25,1162.05 316.11,1164.06 313.94,1166.07 311.76,1168.09 309.56,1170.12 307.35,1172.15 305.11,1174.19 302.97,1176.14" type="driving"/>
  </edge>
  <edge id="-1" from="1.0" to="1.end" priority="1" type="driving" shape="301.60,1174.86 299.16,1177.07 296.73,1179.27 294.31,1181.44 291.91,1183.59 289.52,1185.72 287.15,1187.83 284.79,1189.91 282.44,1191.97 280.11,1194.01 277.80,1196.03 275.49,1198.03 273.20,1200.01 270.93,1201.96 268.66,1203.90 266.41,1205.81 264.18,1207.71 261.95,1209.58 259.74,1211.44 257.54,1213.27 255.36,1215.09 253.19,1216.88 251.03,1218.66 248.88,1220.41 246.75,1222.15 244.63,1223.87 242.52,1225.57 240.42,1227.25 238.34,1228.91 236.26,1230.56 234.20,1232.19 232.15,1233.80 230.11,1235.39 228.09,1236.96 226.07,1238.52 224.07,1240.06 222.08,1241.58 220.10,1243.09 218.13,1244.58 216.17,1246.05 214.22,1247.51 212.29,1248.95 210.36,1250.38 208.45,1251.79 206.54,1253.18 204.65,1254.56 202.76,1255.92 200.89,1257.27 199.02,1258.61 197.17,1259.93 195.33,1261.23 193.49,1262.52 191.67,1263.80 189.86,1265.06 188.05,1266.31 186.26,1267.54 184.47,1268.77 182.69,1269.97 180.93,1271.17 179.17,1272.35 177.42,1273.52 175.68,1274.68 173.95,1275.82 172.22,1276.96 170.51,1278.08 168.80,1279.19 167.10,1280.28 165.41,1281.37 163.73,1282.44 162.06,1283.51 160.40,1284.56 158.74,1285.60 157.09,1286.63 155.45,1287.65 153.81,1288.66 152.19,1289.66 150.57,1290.65 148.96,1291.63 147.35,1292.60 145.76,1293.56 144.17,1294.51 142.58,1295.45 141.01,1296.39 139.44,1297.31 137.87,1298.23 136.32,1299.14 134.77,1300.04 133.22,1300.93 131.69,1301.81 130.16,1302.69 128.63,1303.56 127.11,1304.42 125.60,1305.27 124.09,1306.12 122.59,1306.96 121.09,1307.80 119.60,1308.62 118.12,1309.44 116.64,1310.26 115.16,1311.07 113.69,1311.87 112.23,1312.67 110.77,1313.46 109.32,1314.25 107.86,1315.03 106.42,1315.81 104.98,1316.58 103.54,1317.35 102.11,1318.11 100.68,1318.87 99.26,1319.63 97.84,1320.38 96.42,1321.12 95.01,1321.87 93.60,1322.61 92.20,1323.35 90.80,1324.08 89.40,1324.81 88.00,1325.54 86.61,1326.27 85.22,1326.99 83.84,1327.72 82.46,1328.44 81.08,1329.16 79.70,1329.87 78.33,1330.59 76.96,1331.30 75.59,1332.02 74.22,1332.73 72.86,1333.44 71.50,1334.15 70.14,1334.86 68.78,1335.57 67.43,1336.28 66.07,1337.00 64.72,1337.71 63.37,1338.42 62.02,1339.13 60.67,1339.84 59.33,1340.56 57.98,1341.27 56.64,1341.99 55.29,1342.71 53.95,1343.43 52.61,1344.15 51.27,1344.87 49.93,1345.60 48.59,1346.33 47.25,1347.06 45.92,1347.79 44.58,1348.53 43.24,1349.27 41.90,1350.01 40.56,1350.76 39.23,1351.51 37.89,1352.26 36.55,1353.02 35.21,1353.78 33.87,1354.55 32.53,1355.32 31.19,1356.10 29.85,1356.88 28.50,1357.66 27.16,1358.45 25.82,1359.25 24.47,1360.05 23.12,1360.86 21.77,1361.67 20.42,1362.49 19.07,1363.32 17.72,1364.15 16.36,1364.99 15.01,1365.83 13.65,1366.69 12.29,1367.54 10.92,1368.41 9.56,1369.29 8.19,1370.17 6.82,1371.06 5.44,1371.95 4.07,1372.86 2.69,1373.77">