<?xml version='1.0' encoding='UTF-8'?>
<!-- generated on 2022-09-05 15:48:09 by Eclipse SUMO netconvert Version 1.13.0
<configuration xmlns:xsi="http://www.w3.org/2001/XMLSchema-instance" xsi:noNamespaceSchemaLocation="http://sumo.dlr.de/xsd/netconvertConfiguration.xsd">

    <input>
        <opendrive-files value="map\classification\10\76313244\76313244.xodr"/>
    </input>

    <output>
        <output-file value="C:\Users\LinGe\AppData\Local\Temp\tmpht3nmah_\76313244.net.xml"/>
    </output>

    <processing>
        <geometry.max-grade.fix value="false"/>
    </processing>

    <tls_building>
        <tls.left-green.time value="0"/>
    </tls_building>

    <junctions>
        <rectangular-lane-cut value="true"/>
    </junctions>

    <report>
        <aggregate-warnings value="5"/>
    </report>

</configuration>
-->
<net xmlns:xsi="http://www.w3.org/2001/XMLSchema-instance" version="1.9" junctionCornerDetail="5" rectangularLaneCut="true" limitTurnSpeed="5.50" xsi:noNamespaceSchemaLocation="http://sumo.dlr.de/xsd/net_file.xsd">
  <location netOffset="1.56,101.26" convBoundary="0.00,0.00,1102.73,1302.51" origBoundary="-1.56,-101.26,1101.18,1201.26" projParameter="!"/>
  <type id="bidirectional" priority="1" speed="1.39" disallow="pedestrian tram rail_urban rail rail_electric rail_fast ship" width="3.65"/>
  <type id="border" priority="0" speed="1.39" disallow="all" discard="1" width="0.10"/>
  <type id="driving" priority="1" speed="13.89" disallow="pedestrian tram rail_urban rail rail_electric rail_fast ship" width="3.65"/>
  <type id="entry" priority="1" speed="22.22" disallow="pedestrian tram rail_urban rail rail_electric rail_fast ship" width="3.65"/>
  <type id="exit" priority="1" speed="22.22" disallow="pedestrian tram rail_urban rail rail_electric rail_fast ship" width="3.65"/>
  <type id="median" priority="0" speed="1.39" disallow="all" discard="1" width="0.10"/>
  <type id="mwyEntry" priority="1" speed="22.22" allow="private emergency authority army vip passenger hov taxi bus coach delivery truck trailer motorcycle evehicle custom1 custom2" width="3.65"/>
  <type id="mwyExit" priority="1" speed="22.22" allow="private emergency authority army vip passenger hov taxi bus coach delivery truck trailer motorcycle evehicle custom1 custom2" width="3.65"/>
  <type id="none" priority="0" speed="1.39" disallow="all" discard="1" width="1.00"/>
  <type id="offRamp" priority="1" speed="22.22" allow="private emergency authority army vip passenger hov taxi bus coach delivery truck trailer motorcycle evehicle custom1 custom2" width="3.65"/>
  <type id="onRamp" priority="1" speed="22.22" allow="private emergency authority army vip passenger hov taxi bus coach delivery truck trailer motorcycle evehicle custom1 custom2" width="3.65"/>
  <type id="parking" priority="1" speed="1.39" disallow="pedestrian tram rail_urban rail rail_electric rail_fast ship" width="2.50"/>
  <type id="rail" priority="3" speed="33.33" allow="rail_urban rail rail_electric rail_fast" width="3.65"/>
  <type id="restricted" priority="0" speed="13.89" disallow="all" width="3.65"/>
  <type id="roadWorks" priority="0" speed="1.39" allow="authority" width="3.65"/>
  <type id="shoulder" priority="0" speed="1.39" disallow="all" discard="1" width="1.00"/>
  <type id="special1" priority="1" speed="22.22" allow="custom1" discard="1" width="3.65"/>
  <type id="special2" priority="1" speed="22.22" allow="custom2" discard="1" width="3.65"/>
  <type id="special3" priority="1" speed="22.22" allow="custom1 custom2" discard="1" width="3.65"/>
  <type id="stop" priority="1" speed="13.89" disallow="pedestrian tram rail_urban rail rail_electric rail_fast ship" width="3.65"/>
  <type id="tram" priority="2" speed="13.89" allow="tram" width="3.65"/>
  <edge id=":0_0" function="internal">
    <lane id=":0_0_0" index="0" disallow="pedestrian tram rail_urban rail rail_electric rail_fast ship" speed="15.28" length="111.92" width="3.75" shape="966.54,341.18 886.74,419.66"/>
  </edge>
  <edge id=":0_1" function="internal">
    <lane id=":0_1_0" index="0" disallow="pedestrian tram rail_urban rail rail_electric rail_fast ship" speed="22.22" length="112.07" width="3.75" shape="966.54,341.18 883.80,416.84"/>
    <lane id=":0_1_1" index="1" disallow="pedestrian tram rail_urban rail rail_electric rail_fast ship" speed="22.22" length="112.07" width="3.75" shape="963.99,338.43 881.28,414.05"/>
    <lane id=":0_1_2" index="2" disallow="pedestrian tram rail_urban rail rail_electric rail_fast ship" speed="22.22" length="112.07" width="3.75" shape="961.44,335.68 878.77,411.27"/>
  </edge>
  <edge id=":1_0" function="internal">
    <lane id=":1_0_0" index="0" disallow="pedestrian tram rail_urban rail rail_electric rail_fast ship" speed="20.83" length="28.33" width="3.75" shape="118.45,918.31 126.46,912.95,0.06 132.49,907.87,0.10 136.84,903.41,0.14 139.80,899.91,0.17"/>
  </edge>
  <edge id=":1_1" function="internal">
    <lane id=":1_1_0" index="0" disallow="pedestrian tram rail_urban rail rail_electric rail_fast ship" speed="22.22" length="28.62" width="3.75" shape="118.45,918.31 143.07,903.72"/>
    <lane id=":1_1_1" index="1" disallow="pedestrian tram rail_urban rail rail_electric rail_fast ship" speed="22.22" length="28.62" width="3.75" shape="120.36,921.53 144.98,906.95"/>
    <lane id=":1_1_2" index="2" disallow="pedestrian tram rail_urban rail rail_electric rail_fast ship" speed="22.22" length="28.62" width="3.75" shape="122.27,924.76 146.90,910.18"/>
  </edge>
  <edge id=":10_0" function="internal">
    <lane id=":10_0_0" index="0" disallow="pedestrian tram rail_urban rail rail_electric rail_fast ship" speed="15.28" length="49.08" width="3.75" shape="955.96,1177.27,19.88 960.48,1183.47,19.90 968.40,1193.95,19.93 977.72,1205.69,19.97 986.44,1215.71,20.00"/>
  </edge>
  <edge id=":10_1" function="internal">
    <lane id=":10_1_0" index="0" disallow="pedestrian tram rail_urban rail rail_electric rail_fast ship" speed="22.22" length="48.65" width="3.75" shape="952.93,1180.44,20.00 986.44,1215.71,20.00"/>
    <lane id=":10_1_1" index="1" disallow="pedestrian tram rail_urban rail rail_electric rail_fast ship" speed="22.22" length="48.65" width="3.75" shape="950.21,1183.03,20.00 983.72,1218.29,20.00"/>
    <lane id=":10_1_2" index="2" disallow="pedestrian tram rail_urban rail rail_electric rail_fast ship" speed="22.22" length="48.65" width="3.75" shape="947.49,1185.61,20.00 981.00,1220.88,20.00"/>
  </edge>
  <edge id=":11_0" function="internal">
    <lane id=":11_0_0" index="0" disallow="pedestrian tram rail_urban rail rail_electric rail_fast ship" speed="8.33" length="34.52" width="3.75" shape="739.84,702.57,7.02 740.41,709.35,7.03 741.49,719.75,7.05 742.68,730.14,7.07 743.56,736.88,7.08"/>
  </edge>
  <edge id=":11_1" function="internal">
    <lane id=":11_1_0" index="0" disallow="pedestrian tram rail_urban rail rail_electric rail_fast ship" speed="15.28" length="34.93" width="3.75" shape="739.84,702.57,7.02 739.93,709.43,7.04 739.87,720.03,7.07 739.71,730.63,7.09 739.47,737.49,7.11"/>
  </edge>
  <edge id=":12_0" function="internal">
    <lane id=":12_0_0" index="0" disallow="pedestrian tram rail_urban rail rail_electric rail_fast ship" speed="16.67" length="3.01" width="3.75" shape="321.42,896.64,4.99 318.41,896.60,4.95"/>
  </edge>
  <edge id=":12_1" function="internal">
    <lane id=":12_1_0" index="0" disallow="pedestrian tram rail_urban rail rail_electric rail_fast ship" speed="22.22" length="3.01" width="3.75" shape="321.42,896.64,5.03 318.41,896.60,4.95"/>
  </edge>
  <edge id=":13_0" function="internal">
    <lane id=":13_0_0" index="0" disallow="pedestrian tram rail_urban rail rail_electric rail_fast ship" speed="19.44" length="94.16" width="3.75" shape="184.78,382.65,15.32 153.15,293.97,15.37"/>
  </edge>
  <edge id=":13_1" function="internal">
    <lane id=":13_1_0" index="0" disallow="pedestrian tram rail_urban rail rail_electric rail_fast ship" speed="20.83" length="93.96" width="3.75" shape="188.34,381.08,15.21 153.15,293.97,15.37"/>
  </edge>
  <edge id=":14_0" function="internal">
    <lane id=":14_0_0" index="0" disallow="pedestrian tram rail_urban rail rail_electric rail_fast ship" speed="11.11" length="45.70" width="3.75" shape="711.11,406.28,7.09 719.56,405.08,6.94 733.64,402.54,6.70 747.68,399.79,6.46 756.03,397.94,6.32"/>
  </edge>
  <edge id=":14_1" function="internal">
    <lane id=":14_1_0" index="0" disallow="pedestrian tram rail_urban rail rail_electric rail_fast ship" speed="12.50" length="47.53" width="3.75" shape="710.14,410.36,6.40 756.03,397.94,6.32"/>
  </edge>
  <edge id=":14.13_0" function="internal">
    <lane id=":14.13_0_0" index="0" disallow="pedestrian tram rail_urban rail rail_electric rail_fast ship" speed="22.22" length="0.30" width="3.75" shape="468.76,686.00,20.00 468.57,685.77,20.00"/>
    <lane id=":14.13_0_1" index="1" disallow="pedestrian tram rail_urban rail rail_electric rail_fast ship" speed="22.22" length="0.30" width="3.75" shape="471.68,683.65,20.00 471.49,683.41,20.00"/>
    <lane id=":14.13_0_2" index="2" disallow="pedestrian tram rail_urban rail rail_electric rail_fast ship" speed="22.22" length="0.30" width="3.75" shape="474.59,681.29,20.00 474.41,681.06,20.00"/>
  </edge>
  <edge id=":15_0" function="internal">
    <lane id=":15_0_0" index="0" disallow="pedestrian tram rail_urban rail rail_electric rail_fast ship" speed="8.33" length="51.77" width="3.75" shape="750.57,791.13,12.06 753.20,800.23,12.07 758.38,815.78,12.09 763.78,831.27,12.10 767.07,840.19,12.11"/>
  </edge>
  <edge id=":15_1" function="internal">
    <lane id=":15_1_0" index="0" disallow="pedestrian tram rail_urban rail rail_electric rail_fast ship" speed="11.11" length="51.19" width="3.75" shape="746.82,793.17,12.00 767.07,840.19,12.11"/>
  </edge>
  <edge id=":18.17_0" function="internal">
    <lane id=":18.17_0_0" index="0" disallow="pedestrian tram rail_urban rail rail_electric rail_fast ship" speed="22.22" length="0.30" width="3.75" shape="407.82,908.80,6.83 407.54,908.71,6.82"/>
  </edge>
  <edge id=":2_0" function="internal">
    <lane id=":2_0_0" index="0" disallow="pedestrian tram rail_urban rail rail_electric rail_fast ship" speed="16.67" length="52.66" width="3.75" shape="208.62,284.47,20.00 216.91,295.56,19.95 227.15,308.15,19.89 236.46,319.08,19.83 241.98,325.18,19.80"/>
  </edge>
  <edge id=":2_1" function="internal">
    <lane id=":2_1_0" index="0" disallow="pedestrian tram rail_urban rail rail_electric rail_fast ship" speed="22.22" length="52.85" width="3.75" shape="208.62,284.47,20.00 238.57,328.01,20.00"/>
    <lane id=":2_1_1" index="1" disallow="pedestrian tram rail_urban rail rail_electric rail_fast ship" speed="22.22" length="52.85" width="3.75" shape="205.52,286.60,20.00 235.48,330.14,20.00"/>
    <lane id=":2_1_2" index="2" disallow="pedestrian tram rail_urban rail rail_electric rail_fast ship" speed="22.22" length="52.85" width="3.75" shape="202.43,288.72,20.00 232.39,332.26,20.00"/>
  </edge>
  <edge id=":2.1_0" function="internal">
    <lane id=":2.1_0_0" index="0" disallow="pedestrian tram rail_urban rail rail_electric rail_fast ship" speed="22.22" length="0.30" width="3.75" shape="643.85,617.15 643.61,617.33"/>
    <lane id=":2.1_0_1" index="1" disallow="pedestrian tram rail_urban rail rail_electric rail_fast ship" speed="22.22" length="0.30" width="3.75" shape="641.64,614.11 641.40,614.29"/>
    <lane id=":2.1_0_2" index="2" disallow="pedestrian tram rail_urban rail rail_electric rail_fast ship" speed="22.22" length="0.30" width="3.75" shape="639.44,611.08 639.20,611.26"/>
  </edge>
  <edge id=":22.21_0" function="internal">
    <lane id=":22.21_0_0" index="0" disallow="pedestrian tram rail_urban rail rail_electric rail_fast ship" speed="19.44" length="0.30" width="3.75" shape="214.29,511.92,9.80 214.26,511.62,9.80"/>
  </edge>
  <edge id=":26.25_0" function="internal">
    <lane id=":26.25_0_0" index="0" disallow="pedestrian tram rail_urban rail rail_electric rail_fast ship" speed="11.11" length="2.24" width="3.75" shape="713.03,406.20,7.82 710.92,406.29,7.09"/>
  </edge>
  <edge id=":3_0" function="internal">
    <lane id=":3_0_0" index="0" disallow="pedestrian tram rail_urban rail rail_electric rail_fast ship" speed="22.22" length="80.94" width="3.75" shape="912.60,1171.00,20.00 899.62,1158.15,20.00 880.84,1140.24,20.00 863.29,1123.76,20.00 853.97,1115.21,20.00"/>
  </edge>
  <edge id=":3_1" function="internal">
    <lane id=":3_1_0" index="0" disallow="pedestrian tram rail_urban rail rail_electric rail_fast ship" speed="22.22" length="81.06" width="3.75" shape="912.60,1171.00,20.00 856.83,1112.17,20.00"/>
    <lane id=":3_1_1" index="1" disallow="pedestrian tram rail_urban rail rail_electric rail_fast ship" speed="22.22" length="81.06" width="3.75" shape="915.32,1168.42,20.00 859.55,1109.60,20.00"/>
    <lane id=":3_1_2" index="2" disallow="pedestrian tram rail_urban rail rail_electric rail_fast ship" speed="22.22" length="81.06" width="3.75" shape="918.04,1165.84,20.00 862.27,1107.02,20.00"/>
  </edge>
  <edge id=":30.29_0" function="internal">
    <lane id=":30.29_0_0" index="0" disallow="pedestrian tram rail_urban rail rail_electric rail_fast ship" speed="8.33" length="0.29" width="3.75" shape="749.98,785.27,10.29 749.99,785.57,10.30"/>
  </edge>
  <edge id=":33.32_0" function="internal">
    <lane id=":33.32_0_0" index="0" disallow="pedestrian tram rail_urban rail rail_electric rail_fast ship" speed="11.11" length="0.30" width="3.75" shape="922.22,805.43,9.07 922.10,805.70,9.07"/>
  </edge>
  <edge id=":35.34_0" function="internal">
    <lane id=":35.34_0_0" index="0" disallow="pedestrian tram rail_urban rail rail_electric rail_fast ship" speed="22.22" length="0.29" width="3.75" shape="579.93,965.68,9.55 579.69,965.51,9.55"/>
  </edge>
  <edge id=":37.36_0" function="internal">
    <lane id=":37.36_0_0" index="0" disallow="pedestrian tram rail_urban rail rail_electric rail_fast ship" speed="13.89" length="0.30" width="3.75" shape="277.02,616.60,9.90 277.07,616.31,9.90"/>
  </edge>
  <edge id=":39.38_0" function="internal">
    <lane id=":39.38_0_0" index="0" disallow="pedestrian tram rail_urban rail rail_electric rail_fast ship" speed="13.89" length="0.30" width="3.75" shape="481.24,503.51,8.50 481.54,503.55,8.50"/>
  </edge>
  <edge id=":4_0" function="internal">
    <lane id=":4_0_0" index="0" disallow="pedestrian tram rail_urban rail rail_electric rail_fast ship" speed="22.22" length="50.54" width="3.75" shape="162.57,923.83,0.00 155.29,926.90,0.00 142.86,932.51,0.00 128.89,939.22,0.00 116.98,945.59"/>
  </edge>
  <edge id=":4_1" function="internal">
    <lane id=":4_1_0" index="0" disallow="pedestrian tram rail_urban rail rail_electric rail_fast ship" speed="22.22" length="50.07" width="3.75" shape="160.06,920.08 116.98,945.59"/>
    <lane id=":4_1_1" index="1" disallow="pedestrian tram rail_urban rail rail_electric rail_fast ship" speed="22.22" length="50.07" width="3.75" shape="158.15,916.86 115.07,942.36"/>
    <lane id=":4_1_2" index="2" disallow="pedestrian tram rail_urban rail rail_electric rail_fast ship" speed="22.22" length="50.07" width="3.75" shape="156.24,913.63 113.16,939.14"/>
  </edge>
  <edge id=":5_0" function="internal">
    <lane id=":5_0_0" index="0" disallow="pedestrian tram rail_urban rail rail_electric rail_fast ship" speed="22.22" length="3.00" width="3.75" shape="658.48,993.51,13.57 655.75,992.29,13.48"/>
  </edge>
  <edge id=":5_1" function="internal">
    <lane id=":5_1_0" index="0" disallow="pedestrian tram rail_urban rail rail_electric rail_fast ship" speed="18.06" length="3.00" width="3.75" shape="658.48,993.51,13.57 655.75,992.28,13.53"/>
  </edge>
  <edge id=":6_0" function="internal">
    <lane id=":6_0_0" index="0" disallow="pedestrian tram rail_urban rail rail_electric rail_fast ship" speed="20.83" length="77.37" width="3.75" shape="92.90,162.72,20.00 86.84,152.25,20.00 75.19,132.59,20.00 62.41,111.43,20.00 52.94,96.47,20.00"/>
  </edge>
  <edge id=":6_1" function="internal">
    <lane id=":6_1_0" index="0" disallow="pedestrian tram rail_urban rail rail_electric rail_fast ship" speed="22.22" length="77.09" width="3.75" shape="96.27,160.23,20.00 52.94,96.47,20.00"/>
    <lane id=":6_1_1" index="1" disallow="pedestrian tram rail_urban rail rail_electric rail_fast ship" speed="22.22" length="77.09" width="3.75" shape="99.37,158.12,20.00 56.04,94.36,20.00"/>
    <lane id=":6_1_2" index="2" disallow="pedestrian tram rail_urban rail rail_electric rail_fast ship" speed="22.22" length="77.09" width="3.75" shape="102.47,156.01,20.00 59.14,92.25,20.00"/>
  </edge>
  <edge id=":6.5_0" function="internal">
    <lane id=":6.5_0_0" index="0" disallow="pedestrian tram rail_urban rail rail_electric rail_fast ship" speed="22.22" length="0.30" width="3.75" shape="630.23,598.92 630.47,598.75"/>
    <lane id=":6.5_0_1" index="1" disallow="pedestrian tram rail_urban rail rail_electric rail_fast ship" speed="22.22" length="0.30" width="3.75" shape="632.43,601.96 632.67,601.78"/>
    <lane id=":6.5_0_2" index="2" disallow="pedestrian tram rail_urban rail rail_electric rail_fast ship" speed="22.22" length="0.30" width="3.75" shape="634.64,604.99 634.88,604.81"/>
  </edge>
  <edge id=":7_0" function="internal">
    <lane id=":7_0_0" index="0" disallow="pedestrian tram rail_urban rail rail_electric rail_fast ship" speed="19.44" length="2.99" width="3.75" shape="197.55,752.77,5.24 198.18,749.84,5.34"/>
  </edge>
  <edge id=":7_1" function="internal">
    <lane id=":7_1_0" index="0" disallow="pedestrian tram rail_urban rail rail_electric rail_fast ship" speed="16.67" length="3.00" width="3.75" shape="197.55,752.77,5.24 198.18,749.84,5.29"/>
  </edge>
  <edge id=":8_0" function="internal">
    <lane id=":8_0_0" index="0" disallow="pedestrian tram rail_urban rail rail_electric rail_fast ship" speed="16.67" length="59.09" width="3.75" shape="980.72,291.12,0.00 988.12,285.58,0.00 1001.20,275.41,0.00 1015.57,263.86,0.00 1026.83,254.18"/>
  </edge>
  <edge id=":8_1" function="internal">
    <lane id=":8_1_0" index="0" disallow="pedestrian tram rail_urban rail rail_electric rail_fast ship" speed="22.22" length="58.70" width="3.75" shape="983.84,294.16 1026.83,254.18"/>
    <lane id=":8_1_1" index="1" disallow="pedestrian tram rail_urban rail rail_electric rail_fast ship" speed="22.22" length="58.70" width="3.75" shape="986.40,296.91 1029.39,256.93"/>
    <lane id=":8_1_2" index="2" disallow="pedestrian tram rail_urban rail rail_electric rail_fast ship" speed="22.22" length="58.70" width="3.75" shape="988.95,299.65 1031.94,259.68"/>
  </edge>
  <edge id=":9_0" function="internal">
    <lane id=":9_0_0" index="0" disallow="pedestrian tram rail_urban rail rail_electric rail_fast ship" speed="11.11" length="2.99" width="3.75" shape="528.10,420.06,13.06 531.09,420.06,12.98"/>
  </edge>
  <edge id=":9_1" function="internal">
    <lane id=":9_1_0" index="0" disallow="pedestrian tram rail_urban rail rail_electric rail_fast ship" speed="11.11" length="3.00" width="3.75" shape="528.10,420.06,13.06 531.09,420.07,13.02"/>
  </edge>
  <edge id=":9.10_0" function="internal">
    <lane id=":9.10_0_0" index="0" disallow="pedestrian tram rail_urban rail rail_electric rail_fast ship" speed="22.22" length="0.30" width="3.75" shape="486.27,671.48,20.00 486.46,671.71,20.00"/>
    <lane id=":9.10_0_1" index="1" disallow="pedestrian tram rail_urban rail rail_electric rail_fast ship" speed="22.22" length="0.30" width="3.75" shape="483.35,673.83,20.00 483.54,674.06,20.00"/>
    <lane id=":9.10_0_2" index="2" disallow="pedestrian tram rail_urban rail rail_electric rail_fast ship" speed="22.22" length="0.30" width="3.75" shape="480.44,676.19,20.00 480.63,676.42,20.00"/>
  </edge>
  <edge id="-0" from="0.begin" to="0" priority="1" type="driving" shape="1102.73,202.87 1101.83,203.66 1100.92,204.47 1099.99,205.29 1099.04,206.12 1098.09,206.97 1097.12,207.83 1096.13,208.71 1095.13,209.60 1094.12,210.50 1093.10,211.42 1092.06,212.35 1091.00,213.30 1089.94,214.26 1088.86,215.23 1087.77,216.22 1086.66,217.22 1085.54,218.23 1084.41,219.26 1083.27,220.30 1082.11,221.35 1080.94,222.42 1079.76,223.49 1078.56,224.58 1077.35,225.69 1076.13,226.80 1074.90,227.93 1073.66,229.07 1072.40,230.22 1071.13,231.39 1069.85,232.56 1068.56,233.75 1067.25,234.95 1065.94,236.16 1064.61,237.39 1063.27,238.62 1061.92,239.87 1060.56,241.12 1059.19,242.39 1057.80,243.67 1056.41,244.96 1055.00,246.26 1053.58,247.58 1052.15,248.90 1050.71,250.23 1049.26,251.58 1047.80,252.93 1046.33,254.30 1044.85,255.67 1043.36,257.06 1041.85,258.45 1040.34,259.85 1038.82,261.27 1037.28,262.69 1035.74,264.13 1034.19,265.57 1032.62,267.02 1031.05,268.49 1029.47,269.96 1027.87,271.44 1026.27,272.93 1024.66,274.43 1023.04,275.93 1021.41,277.45 1019.77,278.97 1018.12,280.51 1016.47,282.05 1014.80,283.60 1013.13,285.16 1011.44,286.72 1009.75,288.30 1008.05,289.88 1006.34,291.47 1004.62,293.07 1002.89,294.67 1001.16,296.29 999.41,297.91 997.66,299.54 995.90,301.17 994.14,302.81 992.36,304.46 990.58,306.12 988.79,307.78 986.99,309.45 985.18,311.13 983.37,312.81 981.55,314.50 979.72,316.20 977.88,317.90 976.04,319.61 974.19,321.32 972.33,323.04 970.47,324.77 968.60,326.50 966.72,328.24 964.84,329.98 962.95,331.73 961.05,333.49 959.15,335.25 957.24,337.01">
    <lane id="-0_0" index="0" disallow="pedestrian tram rail_urban rail rail_electric rail_fast ship" speed="22.22" length="193.75" width="3.75" shape="1108.91,209.92 1108.02,210.71 1107.11,211.50 1106.19,212.32 1105.26,213.14 1104.31,213.98 1103.35,214.84 1102.37,215.71 1101.38,216.59 1100.37,217.49 1099.35,218.40 1098.32,219.33 1097.27,220.27 1096.21,221.22 1095.14,222.19 1094.05,223.17 1092.95,224.17 1091.84,225.18 1090.71,226.20 1089.57,227.24 1088.42,228.28 1087.25,229.35 1086.07,230.42 1084.88,231.51 1083.68,232.61 1082.46,233.72 1081.23,234.84 1079.99,235.98 1078.74,237.13 1077.47,238.29 1076.19,239.47 1074.90,240.65 1073.60,241.85 1072.29,243.06 1070.96,244.28 1069.63,245.51 1068.28,246.76 1066.92,248.01 1065.55,249.28 1064.16,250.56 1062.77,251.85 1061.37,253.15 1059.95,254.46 1058.52,255.78 1057.08,257.11 1055.63,258.45 1054.18,259.81 1052.70,261.17 1051.22,262.54 1049.73,263.93 1048.23,265.32 1046.72,266.72 1045.20,268.14 1043.66,269.56 1042.12,271.00 1040.57,272.44 1039.01,273.89 1037.43,275.35 1035.85,276.82 1034.26,278.30 1032.66,279.79 1031.05,281.29 1029.43,282.80 1027.80,284.31 1026.16,285.84 1024.51,287.37 1022.85,288.91 1021.19,290.46 1019.51,292.02 1017.83,293.59 1016.13,295.16 1014.43,296.74 1012.72,298.34 1011.00,299.93 1009.28,301.54 1007.54,303.15 1005.80,304.77 1004.05,306.40 1002.29,308.04 1000.52,309.68 998.74,311.33 996.96,312.99 995.17,314.65 993.37,316.32 991.56,318.00 989.75,319.68 987.92,321.37 986.09,323.07 984.26,324.77 982.41,326.48 980.56,328.20 978.71,329.92 976.84,331.65 974.97,333.38 973.09,335.12 971.20,336.87 969.31,338.62 967.41,340.37 966.54,341.18" type="driving"/>
    <lane id="-0_1" index="1" disallow="pedestrian tram rail_urban rail rail_electric rail_fast ship" speed="22.22" length="193.75" width="3.75" shape="1106.44,207.10 1105.54,207.89 1104.63,208.69 1103.71,209.50 1102.77,210.33 1101.82,211.18 1100.85,212.04 1099.87,212.91 1098.88,213.79 1097.87,214.70 1096.85,215.61 1095.81,216.54 1094.77,217.48 1093.70,218.44 1092.63,219.41 1091.54,220.39 1090.43,221.39 1089.32,222.40 1088.19,223.42 1087.05,224.46 1085.89,225.51 1084.73,226.57 1083.55,227.65 1082.35,228.74 1081.15,229.84 1079.93,230.95 1078.70,232.08 1077.46,233.22 1076.20,234.37 1074.94,235.53 1073.66,236.71 1072.37,237.89 1071.06,239.09 1069.75,240.30 1068.42,241.52 1067.08,242.76 1065.74,244.00 1064.37,245.26 1063.00,246.52 1061.62,247.80 1060.22,249.09 1058.82,250.39 1057.40,251.70 1055.97,253.03 1054.54,254.36 1053.09,255.70 1051.63,257.06 1050.15,258.42 1048.67,259.79 1047.18,261.18 1045.68,262.57 1044.17,263.98 1042.64,265.39 1041.11,266.81 1039.57,268.25 1038.02,269.69 1036.45,271.14 1034.88,272.61 1033.30,274.08 1031.71,275.56 1030.10,277.05 1028.49,278.55 1026.87,280.05 1025.24,281.57 1023.60,283.09 1021.96,284.63 1020.30,286.17 1018.63,287.72 1016.96,289.28 1015.27,290.84 1013.58,292.42 1011.88,294.00 1010.17,295.59 1008.45,297.19 1006.72,298.79 1004.99,300.41 1003.24,302.03 1001.49,303.66 999.73,305.29 997.97,306.93 996.19,308.58 994.41,310.24 992.61,311.90 990.82,313.57 989.01,315.25 987.19,316.93 985.37,318.63 983.54,320.32 981.71,322.02 979.86,323.73 978.01,325.45 976.16,327.17 974.29,328.90 972.42,330.63 970.54,332.37 968.66,334.11 966.77,335.86 964.87,337.62 963.99,338.43" type="driving"/>
    <lane id="-0_2" index="2" disallow="pedestrian tram rail_urban rail rail_electric rail_fast ship" speed="22.22" length="193.75" width="3.75" shape="1103.97,204.28 1103.07,205.07 1102.16,205.88 1101.23,206.69 1100.29,207.53 1099.33,208.37 1098.36,209.23 1097.38,210.11 1096.38,211.00 1095.37,211.90 1094.35,212.82 1093.31,213.75 1092.26,214.69 1091.19,215.65 1090.11,216.62 1089.02,217.61 1087.92,218.61 1086.80,219.62 1085.67,220.65 1084.53,221.69 1083.37,222.74 1082.20,223.80 1081.02,224.88 1079.82,225.97 1078.62,227.07 1077.40,228.19 1076.17,229.31 1074.92,230.45 1073.67,231.60 1072.40,232.77 1071.12,233.94 1069.83,235.13 1068.52,236.33 1067.21,237.54 1065.88,238.77 1064.54,240.00 1063.19,241.24 1061.83,242.50 1060.46,243.77 1059.07,245.05 1057.68,246.34 1056.27,247.64 1054.85,248.95 1053.43,250.27 1051.99,251.61 1050.54,252.95 1049.08,254.31 1047.60,255.67 1046.12,257.04 1044.63,258.43 1043.13,259.82 1041.62,261.23 1040.09,262.64 1038.56,264.07 1037.02,265.50 1035.46,266.94 1033.90,268.40 1032.33,269.86 1030.74,271.33 1029.15,272.81 1027.55,274.30 1025.94,275.80 1024.32,277.31 1022.69,278.82 1021.05,280.35 1019.40,281.88 1017.74,283.42 1016.08,284.97 1014.40,286.53 1012.72,288.10 1011.03,289.67 1009.32,291.25 1007.61,292.84 1005.90,294.44 1004.17,296.05 1002.43,297.66 1000.69,299.28 998.94,300.91 997.18,302.54 995.41,304.19 993.64,305.84 991.85,307.49 990.06,309.16 988.26,310.83 986.46,312.50 984.64,314.19 982.82,315.88 980.99,317.57 979.16,319.27 977.32,320.98 975.47,322.70 973.61,324.42 971.74,326.15 969.87,327.88 968.00,329.62 966.11,331.36 964.22,333.11 962.32,334.86 961.44,335.68" type="driving"/>
  </edge>
  <edge id="-1" from="0" to="2.1" priority="1" type="driving" shape="957.24,337.01 955.83,338.31 954.43,339.60 953.02,340.90 951.61,342.21 950.20,343.51 948.78,344.82 947.36,346.13 945.93,347.44 944.51,348.76 943.08,350.07 941.64,351.39 940.21,352.71 938.77,354.04 937.33,355.37 935.88,356.69 934.43,358.02 932.98,359.36 931.53,360.69 930.07,362.03 928.61,363.37 927.15,364.71 925.69,366.05 924.22,367.40 922.75,368.74 921.28,370.09 919.80,371.44 918.32,372.79 916.84,374.15 915.36,375.50 913.88,376.86 912.39,378.22 910.90,379.58 909.41,380.94 907.91,382.30 906.42,383.67 904.92,385.03 903.42,386.40 901.91,387.77 900.41,389.14 898.90,390.51 897.39,391.88 895.88,393.26 894.36,394.63 892.85,396.01 891.33,397.38 889.81,398.76 888.29,400.14 886.77,401.52 885.24,402.90 883.71,404.28 882.18,405.66 880.65,407.05 879.12,408.43 877.59,409.81 876.05,411.20 874.51,412.59 872.98,413.97 871.43,415.36 869.89,416.75 868.35,418.13 866.80,419.52 865.26,420.91 863.71,422.30 862.16,423.69 860.61,425.08 859.06,426.47 857.51,427.86 855.95,429.25 854.40,430.64 852.84,432.03 851.28,433.42 849.72,434.81 848.16,436.20 846.60,437.59 845.04,438.98 843.48,440.37 841.91,441.76 840.35,443.15 838.78,444.54 837.22,445.93 835.65,447.32 834.08,448.71 832.51,450.09 830.94,451.48 829.37,452.87 827.80,454.26 826.23,455.64 824.66,457.03 823.08,458.41 821.51,459.80 819.94,461.18 818.36,462.56 816.79,463.94 815.21,465.32 813.64,466.71 812.06,468.08 810.49,469.46 808.91,470.84 807.33,472.22 805.76,473.59 804.18,474.97 802.60,476.34 801.02,477.71 799.45,479.08 797.87,480.45 796.29,481.82 794.71,483.18 793.14,484.55 791.56,485.91 789.98,487.28 788.40,488.64 786.83,490.00 785.25,491.36 783.67,492.71 782.10,494.07 780.52,495.42 778.95,496.77 777.37,498.12 775.80,499.47 774.22,500.81 772.65,502.16 771.07,503.50 769.50,504.84 767.93,506.18 766.36,507.51 764.78,508.85 763.21,510.18 761.64,511.51 760.07,512.84 758.51,514.16 756.94,515.49 755.37,516.81 753.80,518.13 752.24,519.44 750.67,520.76 749.11,522.07 747.55,523.38 745.99,524.68 744.43,525.99 742.87,527.29 741.31,528.59 739.75,529.88 738.19,531.18 736.64,532.47 735.09,533.76 733.53,535.04 731.98,536.32 730.43,537.60 728.88,538.88 727.34,540.15 725.79,541.42 724.25,542.69 722.70,543.95 721.16,545.22 719.62,546.47 718.08,547.73 716.55,548.98 715.01,550.23 713.48,551.47 711.95,552.71 710.42,553.95 708.89,555.19 707.36,556.42 705.84,557.64 704.31,558.87 702.79,560.09 701.27,561.31 699.76,562.52 698.24,563.73 696.73,564.93 695.22,566.14 693.71,567.33 692.20,568.53 690.70,569.72 689.19,570.91 687.69,572.09 686.20,573.27 684.70,574.44 683.21,575.61 681.71,576.78 680.23,577.94 678.74,579.10 677.25,580.25 675.77,581.40 674.29,582.55 672.82,583.69 671.34,584.82 669.87,585.95 668.40,587.08 666.94,588.20 665.47,589.32 664.01,590.44 662.55,591.54 661.10,592.65 659.65,593.75 658.20,594.84 656.75,595.93 655.30,597.02 653.86,598.10 652.43,599.18 650.99,600.25 649.56,601.31 648.13,602.37 646.70,603.43 645.28,604.48 643.86,605.52 642.44,606.56 641.03,607.60 639.62,608.63 638.21,609.65">