<?xml version="1.0" encoding="UTF-8"?><!--generated on 2022-09-02 04:19:59 by generate_rou.py--><routes xmlns:xsi="http://www.w3.org/2001/XMLSchema-instance" xsi:noNamespaceSchemaLocation="http://sumo.dlr.de/xsd/routes_file.xsd">
    <vTypeDistribution id="fastlane">
        <vType accel="3.000000" decel="3.000000" emergencyDecel="15" id="fast1" laneChangeModel="SL2015" lcAccelLat="0.5" lcCooperative="1" lcPushy="0" lcSigma="0.1" lcTimeToImpatience="1.2" length="4.3" maxSpeed="30.00" maxSpeedLat="1" minGap="2.5" minGapLat="1" sigma="0" speedFactor="normc(1,0.1,0.30,3.00)" tau="5" vClass="passenger" width="2.2"/>
        <vType accel="5.000000" decel="5.000000" emergencyDecel="15" id="fast2" laneChangeModel="SL2015" lcAccelLat="0.5" lcCooperative="1" lcPushy="0" lcSigma="0.2" lcTimeToImpatience="1.2" length="4.3" maxSpeed="33.0000" maxSpeedLat="1" minGap="2.5" minGapLat="1" sigma="0" speedFactor="normc(1,0.1,0.30,3.0)" tau="5" vClass="passenger" width="2.2"/>
    </vTypeDistribution>
    <vTypeDistribution id="middlelane">
        <vType accel="5.000000" decel="5.000000" emergencyDecel="15" id="middle_backup" laneChangeModel="SL2015" lcAccelLat="0.5" lcCooperative="1" lcPushy="0" lcSigma="0.2" lcTimeToImpatience="1.2" length="4.3" maxSpeed="26.00" maxSpeedLat="1" minGap="2.5" minGapLat="1" sigma="0" speedFactor="normc(1,0.1,0.30,2.00)" tau="5" vClass="passenger" width="2.2"/>
        <vType accel="5.000000" decel="5.000000" emergencyDecel="15" id="middle1" laneChangeModel="SL2015" lcCooperative="0" lcSpeedGain="0" length="4.3" maxSpeed="26.00" minGap="2.5" sigma="0" tau="5" vClass="passenger" width="2.2"/>
        <vType accel="5.000000" decel="5.000000" emergencyDecel="15" id="middle2" laneChangeModel="SL2015" lcAccelLat="0.5" lcCooperative="1" lcPushy="0" lcSigma="0" lcTimeToImpatience="1.2" length="9.6" maxSpeed="28.00" maxSpeedLat="1" minGap="2.5" minGapLat="1" sigma="0" speedFactor="normc(1,0.1,0.30,2.00)" tau="5" vClass="truck" width="3"/>
    </vTypeDistribution>
    <vTypeDistribution id="slowlane">
        <vType accel="5.000000" decel="5.000000" emergencyDecel="15" id="slow1" laneChangeModel="SL2015" lcAccelLat="0.5" lcCooperative="1" lcPushy="0" lcSigma="0.1" lcTimeToImpatience="1.2" length="4.3" maxSpeed="22.00" maxSpeedLat="1" minGap="2.0" minGapLat="1" sigma="0" speedFactor="normc(1,0.1,0.30,2.00)" tau="5" vClass="passenger" width="2.2"/>
        <vType accel="3.000000" decel="3.000000" emergencyDecel="15" id="slow2" laneChangeModel="SL2015" lcAccelLat="0.5" lcCooperative="1" lcPushy="0" lcSigma="0" lcTimeToImpatience="1.2" length="17.5" maxSpeed="20.00" maxSpeedLat="1" minGap="2.5" minGapLat="1" sigma="0" speedFactor="normc(1,0.1,0.20,3.00)" tau="5" vClass="truck" width="2.8"/>
    </vTypeDistribution>
    
    <flow begin="0" color="0.32,0.49,0.01" departLane="0" departPos="0" departSpeed="0" id="-0_-17" type="middle1" vehsPerHour="1800">
        <route edges="-0 -24 -25 -17"/>
    </flow>
    <flow begin="0" color="0.64,0.45,0.52" departLane="0" departPos="0" departSpeed="0" id="-0_-23" type="middle1" vehsPerHour="1800">
        <route edges="-0 -1 -2 -3 -32 -33 -20 -21 -22 -23"/>
    </flow>
    <flow begin="0" color="0.39,0.75,0.2" departLane="2" departPos="0" departSpeed="0" id="-0_-5" type="middle1" vehsPerHour="1800">
        <route edges="-0 -1 -2 -3 -4 -5"/>
    </flow>
    <flow begin="0" color="0.57,0.65,0.03" departLane="0" departPos="0" departSpeed="0" id="-12_-11" type="middle1" vehsPerHour="1800">
        <route edges="-12 -30 -31 -11"/>
    </flow>
    <flow begin="0" color="0.24,0.58,0.23" departLane="2" departPos="0" departSpeed="0" id="-12_-17" type="middle1" vehsPerHour="1800">
        <route edges="-12 -13 -14 -15 -16 -17"/>
    </flow>
    
    <flow begin="0" color="0.85,0.35,0.1" departLane="0" departPos="0" departSpeed="0" id="-12_-5" type="middle1" vehsPerHour="1800">
        <route edges="-12 -13 -14 -15 -38 -39 -2 -3 -4 -5"/>
    </flow>
    <flow begin="0" color="0.26,0.18,0.23" departLane="0" departPos="0" departSpeed="0" id="-18_-11" type="middle1" vehsPerHour="1800">
        <route edges="-18 -19 -20 -21 -34 -35 -8 -9 -10 -11"/>
    </flow>
    
    <flow begin="0" color="0.21,0.53,0.13" departLane="2" departPos="0" departSpeed="0" id="-18_-23" type="middle1" vehsPerHour="1800">
        <route edges="-18 -19 -20 -21 -22 -23"/>
    </flow>
    <flow begin="0" color="0.72,0.47,0.43" departLane="0" departPos="0" departSpeed="0" id="-18_-5" type="middle1" vehsPerHour="1800">
        <route edges="-18 -26 -27 -5"/>
    </flow>
    <flow begin="0" color="0.57,0.45,0.53" departLane="2" departPos="0" departSpeed="0" id="-6_-11" type="middle1" vehsPerHour="1800">
        <route edges="-6 -7 -8 -9 -10 -11"/>
    </flow>
    <flow begin="0" color="0.43,0.99,0.15" departLane="0" departPos="0" departSpeed="0" id="-6_-17" type="middle1" vehsPerHour="1800">
        <route edges="-6 -7 -8 -9 -36 -37 -15 -16 -17"/>
    </flow>
    <flow begin="0" color="0.95,0.69,0.18" departLane="0" departPos="0" departSpeed="0" id="-6_-23" type="middle1" vehsPerHour="1800">
        <route edges="-6 -28 -29 -23"/>
    </flow>
    
</routes>