<?xml version='1.0' encoding='UTF-8'?>
<!-- generated on 2022-11-13 00:23:41 by Eclipse SUMO netconvert Version 1.13.0
<configuration xmlns:xsi="http://www.w3.org/2001/XMLSchema-instance" xsi:noNamespaceSchemaLocation="http://sumo.dlr.de/xsd/netconvertConfiguration.xsd">

    <input>
        <opendrive-files value="map_v4\20\66116615\66116615.xodr"/>
    </input>

    <output>
        <output-file value="C:\Users\LinGe\AppData\Local\Temp\tmpwza52fxj\66116615.net.xml"/>
    </output>

    <processing>
        <geometry.max-grade.fix value="false"/>
    </processing>

    <tls_building>
        <tls.left-green.time value="0"/>
    </tls_building>

    <junctions>
        <rectangular-lane-cut value="true"/>
    </junctions>

    <report>
        <aggregate-warnings value="5"/>
    </report>

</configuration>
-->
<net xmlns:xsi="http://www.w3.org/2001/XMLSchema-instance" version="1.9" junctionCornerDetail="5" rectangularLaneCut="true" limitTurnSpeed="5.50" xsi:noNamespaceSchemaLocation="http://sumo.dlr.de/xsd/net_file.xsd">
  <location netOffset="1.56,101.26" convBoundary="0.00,0.00,1102.73,1302.51" origBoundary="-1.56,-101.26,1101.18,1201.26" projParameter="!"/>
  <type id="bidirectional" priority="1" speed="1.39" disallow="pedestrian tram rail_urban rail rail_electric rail_fast ship" width="3.65"/>
  <type id="border" priority="0" speed="1.39" disallow="all" discard="1" width="0.10"/>
  <type id="driving" priority="1" speed="13.89" disallow="pedestrian tram rail_urban rail rail_electric rail_fast ship" width="3.65"/>
  <type id="entry" priority="1" speed="22.22" disallow="pedestrian tram rail_urban rail rail_electric rail_fast ship" width="3.65"/>
  <type id="exit" priority="1" speed="22.22" disallow="pedestrian tram rail_urban rail rail_electric rail_fast ship" width="3.65"/>
  <type id="median" priority="0" speed="1.39" disallow="all" discard="1" width="0.10"/>
  <type id="mwyEntry" priority="1" speed="22.22" allow="private emergency authority army vip passenger hov taxi bus coach delivery truck trailer motorcycle evehicle custom1 custom2" width="3.65"/>
  <type id="mwyExit" priority="1" speed="22.22" allow="private emergency authority army vip passenger hov taxi bus coach delivery truck trailer motorcycle evehicle custom1 custom2" width="3.65"/>
  <type id="none" priority="0" speed="1.39" disallow="all" discard="1" width="1.00"/>
  <type id="offRamp" priority="1" speed="22.22" allow="private emergency authority army vip passenger hov taxi bus coach delivery truck trailer motorcycle evehicle custom1 custom2" width="3.65"/>
  <type id="onRamp" priority="1" speed="22.22" allow="private emergency authority army vip passenger hov taxi bus coach delivery truck trailer motorcycle evehicle custom1 custom2" width="3.65"/>
  <type id="parking" priority="1" speed="1.39" disallow="pedestrian tram rail_urban rail rail_electric rail_fast ship" width="2.50"/>
  <type id="rail" priority="3" speed="33.33" allow="rail_urban rail rail_electric rail_fast" width="3.65"/>
  <type id="restricted" priority="0" speed="13.89" disallow="all" width="3.65"/>
  <type id="roadWorks" priority="0" speed="1.39" allow="authority" width="3.65"/>
  <type id="shoulder" priority="0" speed="1.39" disallow="all" discard="1" width="1.00"/>
  <type id="special1" priority="1" speed="22.22" allow="custom1" discard="1" width="3.65"/>
  <type id="special2" priority="1" speed="22.22" allow="custom2" discard="1" width="3.65"/>
  <type id="special3" priority="1" speed="22.22" allow="custom1 custom2" discard="1" width="3.65"/>
  <type id="stop" priority="1" speed="13.89" disallow="pedestrian tram rail_urban rail rail_electric rail_fast ship" width="3.65"/>
  <type id="tram" priority="2" speed="13.89" allow="tram" width="3.65"/>
  <edge id=":0_0" function="internal">
    <lane id=":0_0_0" index="0" disallow="pedestrian tram rail_urban rail rail_electric rail_fast ship" speed="15.28" length="49.39" width="3.75" shape="1039.97,274.34 1030.72,283.94,0.05 1020.72,295.26,0.11 1012.19,305.38,0.16 1007.31,311.37,0.19"/>
  </edge>
  <edge id=":0_1" function="internal">
    <lane id=":0_1_0" index="0" disallow="pedestrian tram rail_urban rail rail_electric rail_fast ship" speed="22.22" length="49.50" width="3.75" shape="1039.97,274.34 1004.12,308.47"/>
    <lane id=":0_1_1" index="1" disallow="pedestrian tram rail_urban rail rail_electric rail_fast ship" speed="22.22" length="49.50" width="3.75" shape="1037.39,271.63 1001.53,305.75"/>
    <lane id=":0_1_2" index="2" disallow="pedestrian tram rail_urban rail rail_electric rail_fast ship" speed="22.22" length="49.50" width="3.75" shape="1034.80,268.91 998.95,303.04"/>
  </edge>
  <edge id=":1_0" function="internal">
    <lane id=":1_0_0" index="0" disallow="pedestrian tram rail_urban rail rail_electric rail_fast ship" speed="20.83" length="94.05" width="3.75" shape="119.12,918.29 136.32,907.48 161.87,890.90 185.74,875.19 197.93,866.98"/>
  </edge>
  <edge id=":1_1" function="internal">
    <lane id=":1_1_0" index="0" disallow="pedestrian tram rail_urban rail rail_electric rail_fast ship" speed="22.22" length="94.16" width="3.75" shape="119.12,918.29 200.20,870.45"/>
    <lane id=":1_1_1" index="1" disallow="pedestrian tram rail_urban rail rail_electric rail_fast ship" speed="22.22" length="94.16" width="3.75" shape="121.02,921.52 202.11,873.67"/>
    <lane id=":1_1_2" index="2" disallow="pedestrian tram rail_urban rail rail_electric rail_fast ship" speed="22.22" length="94.16" width="3.75" shape="122.92,924.75 204.02,876.90"/>
  </edge>
  <edge id=":10_0" function="internal">
    <lane id=":10_0_0" index="0" disallow="pedestrian tram rail_urban rail rail_electric rail_fast ship" speed="15.28" length="79.24" width="3.75" shape="923.75,1090.50,20.00 930.08,1101.14,20.00 942.31,1121.20,20.00 955.68,1142.75,20.00 965.47,1157.86,20.00"/>
  </edge>
  <edge id=":10_1" function="internal">
    <lane id=":10_1_0" index="0" disallow="pedestrian tram rail_urban rail rail_electric rail_fast ship" speed="22.22" length="78.96" width="3.75" shape="920.41,1093.02,20.00 965.47,1157.86,20.00"/>
    <lane id=":10_1_1" index="1" disallow="pedestrian tram rail_urban rail rail_electric rail_fast ship" speed="22.22" length="78.96" width="3.75" shape="917.33,1095.16,20.00 962.39,1160.00,20.00"/>
    <lane id=":10_1_2" index="2" disallow="pedestrian tram rail_urban rail rail_electric rail_fast ship" speed="22.22" length="78.96" width="3.75" shape="914.25,1097.30,20.00 959.31,1162.13,20.00"/>
  </edge>
  <edge id=":11_0" function="internal">
    <lane id=":11_0_0" index="0" disallow="pedestrian tram rail_urban rail rail_electric rail_fast ship" speed="8.33" length="3.00" width="3.75" shape="853.77,544.03,6.06 852.27,546.62,6.13"/>
  </edge>
  <edge id=":11_1" function="internal">
    <lane id=":11_1_0" index="0" disallow="pedestrian tram rail_urban rail rail_electric rail_fast ship" speed="12.50" length="3.00" width="3.75" shape="853.77,544.03,6.06 852.27,546.62,6.10"/>
  </edge>
  <edge id=":12_0" function="internal">
    <lane id=":12_0_0" index="0" disallow="pedestrian tram rail_urban rail rail_electric rail_fast ship" speed="20.83" length="7.99" width="3.75" shape="688.52,559.09,0.00 694.80,554.15"/>
  </edge>
  <edge id=":12_1" function="internal">
    <lane id=":12_1_0" index="0" disallow="pedestrian tram rail_urban rail rail_electric rail_fast ship" speed="22.22" length="8.00" width="3.75" shape="688.53,559.09 694.80,554.15"/>
    <lane id=":12_1_1" index="1" disallow="pedestrian tram rail_urban rail rail_electric rail_fast ship" speed="22.22" length="8.00" width="3.75" shape="690.85,562.04 697.13,557.09"/>
    <lane id=":12_1_2" index="2" disallow="pedestrian tram rail_urban rail rail_electric rail_fast ship" speed="22.22" length="8.00" width="3.75" shape="693.16,564.99 699.46,560.03"/>
  </edge>
  <edge id=":12.11_0" function="internal">
    <lane id=":12.11_0_0" index="0" disallow="pedestrian tram rail_urban rail rail_electric rail_fast ship" speed="22.22" length="0.30" width="3.75" shape="548.15,576.39,20.00 548.34,576.63,20.00"/>
    <lane id=":12.11_0_1" index="1" disallow="pedestrian tram rail_urban rail rail_electric rail_fast ship" speed="22.22" length="0.30" width="3.75" shape="545.23,578.75,20.00 545.42,578.98,20.00"/>
    <lane id=":12.11_0_2" index="2" disallow="pedestrian tram rail_urban rail rail_electric rail_fast ship" speed="22.22" length="0.30" width="3.75" shape="542.32,581.11,20.00 542.50,581.34,20.00"/>
  </edge>
  <edge id=":13_0" function="internal">
    <lane id=":13_0_0" index="0" disallow="pedestrian tram rail_urban rail rail_electric rail_fast ship" speed="18.03" length="22.53" width="3.75" shape="858.35,991.99,19.99 858.37,996.13,19.99 859.08,1001.05,20.00 861.02,1006.73,20.00 864.72,1013.15,20.00"/>
  </edge>
  <edge id=":13_1" function="internal">
    <lane id=":13_1_0" index="0" disallow="pedestrian tram rail_urban rail rail_electric rail_fast ship" speed="22.22" length="20.84" width="3.75" shape="852.78,996.08,20.00 864.72,1013.15,20.00"/>
    <lane id=":13_1_1" index="1" disallow="pedestrian tram rail_urban rail rail_electric rail_fast ship" speed="22.22" length="20.84" width="3.75" shape="849.70,998.23,20.00 861.64,1015.30,20.00"/>
    <lane id=":13_1_2" index="2" disallow="pedestrian tram rail_urban rail rail_electric rail_fast ship" speed="22.22" length="20.84" width="3.75" shape="846.63,1000.38,20.00 858.57,1017.45,20.00"/>
  </edge>
  <edge id=":14_0" function="internal">
    <lane id=":14_0_0" index="0" disallow="pedestrian tram rail_urban rail rail_electric rail_fast ship" speed="15.28" length="44.88" width="3.75" shape="510.62,713.96 504.19,716.76 493.57,721.66 481.43,727.67 470.43,733.85"/>
  </edge>
  <edge id=":14_1" function="internal">
    <lane id=":14_1_0" index="0" disallow="pedestrian tram rail_urban rail rail_electric rail_fast ship" speed="22.22" length="44.38" width="3.75" shape="508.06,710.28 470.43,733.85"/>
    <lane id=":14_1_1" index="1" disallow="pedestrian tram rail_urban rail rail_electric rail_fast ship" speed="22.22" length="44.38" width="3.75" shape="506.06,707.11 468.45,730.67"/>
    <lane id=":14_1_2" index="2" disallow="pedestrian tram rail_urban rail rail_electric rail_fast ship" speed="22.22" length="44.38" width="3.75" shape="504.06,703.93 466.46,727.48"/>
  </edge>
  <edge id=":15_0" function="internal">
    <lane id=":15_0_0" index="0" disallow="pedestrian tram rail_urban rail rail_electric rail_fast ship" speed="13.03" length="18.92" width="3.75" shape="298.03,342.86,19.99 298.28,337.82,19.99 297.51,333.21,20.00 295.74,329.03,20.00 292.96,325.30,20.00"/>
  </edge>
  <edge id=":15_1" function="internal">
    <lane id=":15_1_0" index="0" disallow="pedestrian tram rail_urban rail rail_electric rail_fast ship" speed="22.22" length="16.76" width="3.75" shape="304.39,337.54,20.00 292.96,325.30,20.00"/>
    <lane id=":15_1_1" index="1" disallow="pedestrian tram rail_urban rail rail_electric rail_fast ship" speed="22.22" length="16.76" width="3.75" shape="307.13,334.98,20.00 295.69,322.74,20.00"/>
    <lane id=":15_1_2" index="2" disallow="pedestrian tram rail_urban rail rail_electric rail_fast ship" speed="22.22" length="16.76" width="3.75" shape="309.88,332.43,20.00 298.43,320.18,20.00"/>
  </edge>
  <edge id=":17.16_0" function="internal">
    <lane id=":17.16_0_0" index="0" disallow="pedestrian tram rail_urban rail rail_electric rail_fast ship" speed="22.22" length="0.30" width="3.75" shape="530.64,590.92,20.00 530.45,590.69,20.00"/>
    <lane id=":17.16_0_1" index="1" disallow="pedestrian tram rail_urban rail rail_electric rail_fast ship" speed="22.22" length="0.30" width="3.75" shape="533.56,588.57,20.00 533.37,588.33,20.00"/>
    <lane id=":17.16_0_2" index="2" disallow="pedestrian tram rail_urban rail rail_electric rail_fast ship" speed="22.22" length="0.30" width="3.75" shape="536.48,586.21,20.00 536.29,585.98,20.00"/>
  </edge>
  <edge id=":2_0" function="internal">
    <lane id=":2_0_0" index="0" disallow="pedestrian tram rail_urban rail rail_electric rail_fast ship" speed="15.28" length="118.91" width="3.75" shape="100.88,89.45,20.00 185.78,172.71,20.00"/>
  </edge>
  <edge id=":2_1" function="internal">
    <lane id=":2_1_0" index="0" disallow="pedestrian tram rail_urban rail rail_electric rail_fast ship" speed="22.22" length="119.00" width="3.75" shape="100.88,89.45,20.00 182.98,175.61,20.00"/>
    <lane id=":2_1_1" index="1" disallow="pedestrian tram rail_urban rail rail_electric rail_fast ship" speed="22.22" length="119.00" width="3.75" shape="98.17,92.04,20.00 180.26,178.20,20.00"/>
    <lane id=":2_1_2" index="2" disallow="pedestrian tram rail_urban rail rail_electric rail_fast ship" speed="22.22" length="119.00" width="3.75" shape="95.46,94.63,20.00 177.54,180.78,20.00"/>
  </edge>
  <edge id=":2.1_0" function="internal">
    <lane id=":2.1_0_0" index="0" disallow="pedestrian tram rail_urban rail rail_electric rail_fast ship" speed="22.22" length="0.30" width="3.75" shape="660.28,608.99 660.04,609.17"/>
    <lane id=":2.1_0_1" index="1" disallow="pedestrian tram rail_urban rail rail_electric rail_fast ship" speed="22.22" length="0.30" width="3.75" shape="658.08,605.96 657.83,606.13"/>
    <lane id=":2.1_0_2" index="2" disallow="pedestrian tram rail_urban rail rail_electric rail_fast ship" speed="22.22" length="0.30" width="3.75" shape="655.87,602.93 655.63,603.10"/>
  </edge>
  <edge id=":22.21_0" function="internal">
    <lane id=":22.21_0_0" index="0" disallow="pedestrian tram rail_urban rail rail_electric rail_fast ship" speed="19.44" length="0.30" width="3.75" shape="546.99,1066.56,10.17 546.70,1066.48,10.16"/>
  </edge>
  <edge id=":25.24_0" function="internal">
    <lane id=":25.24_0_0" index="0" disallow="pedestrian tram rail_urban rail rail_electric rail_fast ship" speed="19.44" length="0.30" width="3.75" shape="323.85,579.41,9.63 323.86,579.11,9.64"/>
  </edge>
  <edge id=":28.27_0" function="internal">
    <lane id=":28.27_0_0" index="0" disallow="pedestrian tram rail_urban rail rail_electric rail_fast ship" speed="8.33" length="0.29" width="3.75" shape="608.43,398.77,7.69 608.72,398.84,7.68"/>
  </edge>
  <edge id=":3_0" function="internal">
    <lane id=":3_0_0" index="0" disallow="pedestrian tram rail_urban rail rail_electric rail_fast ship" speed="20.83" length="27.45" width="3.75" shape="940.91,1162.35,20.00 935.18,1155.01,19.97 929.85,1149.59,19.94 925.19,1145.76,19.92 921.46,1143.23,19.90"/>
  </edge>
  <edge id=":3_1" function="internal">
    <lane id=":3_1_0" index="0" disallow="pedestrian tram rail_urban rail rail_electric rail_fast ship" speed="22.22" length="27.77" width="3.75" shape="940.91,1162.35,20.00 925.06,1139.54,20.00"/>
    <lane id=":3_1_1" index="1" disallow="pedestrian tram rail_urban rail rail_electric rail_fast ship" speed="22.22" length="27.77" width="3.75" shape="943.99,1160.21,20.00 928.14,1137.40,20.00"/>
    <lane id=":3_1_2" index="2" disallow="pedestrian tram rail_urban rail rail_electric rail_fast ship" speed="22.22" length="27.77" width="3.75" shape="947.07,1158.07,20.00 931.22,1135.26,20.00"/>
  </edge>
  <edge id=":31.30_0" function="internal">
    <lane id=":31.30_0_0" index="0" disallow="pedestrian tram rail_urban rail rail_electric rail_fast ship" speed="8.33" length="0.28" width="3.75" shape="791.77,676.44,9.57 791.75,676.73,9.58"/>
  </edge>
  <edge id=":33.32_0" function="internal">
    <lane id=":33.32_0_0" index="0" disallow="pedestrian tram rail_urban rail rail_electric rail_fast ship" speed="19.44" length="0.30" width="3.75" shape="602.00,702.46,3.70 602.03,702.17,3.69"/>
  </edge>
  <edge id=":35.34_0" function="internal">
    <lane id=":35.34_0_0" index="0" disallow="pedestrian tram rail_urban rail rail_electric rail_fast ship" speed="19.44" length="0.30" width="3.75" shape="845.62,365.98,13.73 845.86,366.14,13.73"/>
  </edge>
  <edge id=":37.36_0" function="internal">
    <lane id=":37.36_0_0" index="0" disallow="pedestrian tram rail_urban rail rail_electric rail_fast ship" speed="8.33" length="0.10" width="3.75" shape="594.94,642.23,3.90 594.94,642.29,3.90"/>
  </edge>
  <edge id=":39.38_0" function="internal">
    <lane id=":39.38_0_0" index="0" disallow="pedestrian tram rail_urban rail rail_electric rail_fast ship" speed="16.67" length="0.30" width="3.75" shape="362.85,848.86,13.15 362.57,848.75,13.16"/>
  </edge>
  <edge id=":4_0" function="internal">
    <lane id=":4_0_0" index="0" disallow="pedestrian tram rail_urban rail rail_electric rail_fast ship" speed="20.83" length="29.26" width="3.75" shape="186.47,911.57,0.08 181.84,912.24,0.07 175.58,913.78,0.05 167.90,916.61,0.03 159.04,921.15"/>
  </edge>
  <edge id=":4_1" function="internal">
    <lane id=":4_1_0" index="0" disallow="pedestrian tram rail_urban rail rail_electric rail_fast ship" speed="22.22" length="28.14" width="3.75" shape="183.28,906.86 159.04,921.15"/>
    <lane id=":4_1_1" index="1" disallow="pedestrian tram rail_urban rail rail_electric rail_fast ship" speed="22.22" length="28.14" width="3.75" shape="181.37,903.63 157.14,917.92"/>
    <lane id=":4_1_2" index="2" disallow="pedestrian tram rail_urban rail rail_electric rail_fast ship" speed="22.22" length="28.14" width="3.75" shape="179.47,900.40 155.23,914.69"/>
  </edge>
  <edge id=":5_0" function="internal">
    <lane id=":5_0_0" index="0" disallow="pedestrian tram rail_urban rail rail_electric rail_fast ship" speed="19.44" length="21.54" width="3.75" shape="648.76,1089.61,12.27 627.55,1085.87,12.23"/>
  </edge>
  <edge id=":5_1" function="internal">
    <lane id=":5_1_0" index="0" disallow="pedestrian tram rail_urban rail rail_electric rail_fast ship" speed="19.44" length="22.71" width="3.75" shape="648.76,1089.61,12.27 643.98,1088.33,12.25 637.97,1086.09,12.23 632.14,1083.44,12.21 627.87,1080.96,12.20"/>
  </edge>
  <edge id=":6_0" function="internal">
    <lane id=":6_0_0" index="0" disallow="pedestrian tram rail_urban rail rail_electric rail_fast ship" speed="20.83" length="64.83" width="3.75" shape="184.92,216.91,20.00 178.65,208.95,20.00 166.96,194.55,20.00 153.89,178.87,20.00 143.47,167.07,20.00"/>
  </edge>
  <edge id=":6_1" function="internal">
    <lane id=":6_1_0" index="0" disallow="pedestrian tram rail_urban rail rail_electric rail_fast ship" speed="22.22" length="64.49" width="3.75" shape="187.89,213.81,20.00 143.47,167.07,20.00"/>
    <lane id=":6_1_1" index="1" disallow="pedestrian tram rail_urban rail rail_electric rail_fast ship" speed="22.22" length="64.49" width="3.75" shape="190.61,211.23,20.00 146.19,164.49,20.00"/>
    <lane id=":6_1_2" index="2" disallow="pedestrian tram rail_urban rail rail_electric rail_fast ship" speed="22.22" length="64.49" width="3.75" shape="193.33,208.65,20.00 148.90,161.90,20.00"/>
  </edge>
  <edge id=":7_0" function="internal">
    <lane id=":7_0_0" index="0" disallow="pedestrian tram rail_urban rail rail_electric rail_fast ship" speed="19.44" length="3.00" width="3.75" shape="322.38,661.33,7.33 322.52,658.34,7.41"/>
  </edge>
  <edge id=":7_1" function="internal">
    <lane id=":7_1_0" index="0" disallow="pedestrian tram rail_urban rail rail_electric rail_fast ship" speed="19.44" length="3.00" width="3.75" shape="322.38,661.33,7.33 322.52,658.33,7.37"/>
  </edge>
  <edge id=":7.6_0" function="internal">
    <lane id=":7.6_0_0" index="0" disallow="pedestrian tram rail_urban rail rail_electric rail_fast ship" speed="22.22" length="0.30" width="3.75" shape="646.66,590.77 646.90,590.59"/>
    <lane id=":7.6_0_1" index="1" disallow="pedestrian tram rail_urban rail rail_electric rail_fast ship" speed="22.22" length="0.30" width="3.75" shape="648.86,593.80 649.11,593.63"/>
    <lane id=":7.6_0_2" index="2" disallow="pedestrian tram rail_urban rail rail_electric rail_fast ship" speed="22.22" length="0.30" width="3.75" shape="651.07,596.84 651.31,596.66"/>
  </edge>
  <edge id=":8_0" function="internal">
    <lane id=":8_0_0" index="0" disallow="pedestrian tram rail_urban rail rail_electric rail_fast ship" speed="15.28" length="31.10" width="3.75" shape="944.41,326.76,0.07 948.78,324.56,0.06 954.85,321.14,0.04 962.12,316.20,0.02 970.10,309.45"/>
  </edge>
  <edge id=":8_1" function="internal">
    <lane id=":8_1_0" index="0" disallow="pedestrian tram rail_urban rail rail_electric rail_fast ship" speed="22.22" length="30.25" width="3.75" shape="948.13,330.23 970.10,309.45"/>
    <lane id=":8_1_1" index="1" disallow="pedestrian tram rail_urban rail rail_electric rail_fast ship" speed="22.22" length="30.25" width="3.75" shape="950.71,332.96 972.68,312.17"/>
    <lane id=":8_1_2" index="2" disallow="pedestrian tram rail_urban rail rail_electric rail_fast ship" speed="22.22" length="30.25" width="3.75" shape="953.28,335.69 975.26,314.89"/>
  </edge>
  <edge id=":9_0" function="internal">
    <lane id=":9_0_0" index="0" disallow="pedestrian tram rail_urban rail rail_electric rail_fast ship" speed="8.33" length="19.13" width="3.75" shape="453.92,349.60,12.04 471.66,356.76,12.00"/>
  </edge>
  <edge id=":9_1" function="internal">
    <lane id=":9_1_0" index="0" disallow="pedestrian tram rail_urban rail rail_electric rail_fast ship" speed="8.33" length="20.24" width="3.75" shape="453.92,349.60,12.04 457.93,351.74,12.02 462.53,354.85,12.00 466.93,358.26,11.98 470.32,361.32,11.96"/>
  </edge>
  <edge id="-0" from="0.begin" to="0" priority="1" type="driving" shape="1102.73,202.87 1101.68,203.81 1100.61,204.77 1099.52,205.75 1098.41,206.74 1097.29,207.76 1096.15,208.79 1094.99,209.84 1093.82,210.91 1092.63,212.00 1091.42,213.10 1090.19,214.22 1088.95,215.37 1087.69,216.52 1086.42,217.70 1085.13,218.89 1083.82,220.10 1082.50,221.33 1081.16,222.57 1079.81,223.83 1078.44,225.11 1077.05,226.40 1075.65,227.71 1074.23,229.03 1072.80,230.38 1071.35,231.73 1069.89,233.10 1068.42,234.49 1066.93,235.89 1065.42,237.31 1063.90,238.74 1062.36,240.19 1060.81,241.65 1059.25,243.13 1057.67,244.62 1056.08,246.13 1054.48,247.65 1052.86,249.18 1051.22,250.73 1049.58,252.29 1047.92,253.86 1046.24,255.45 1044.56,257.05 1042.86,258.67 1041.15,260.29 1039.42,261.93 1037.68,263.58 1035.93,265.25 1034.17,266.93 1032.40,268.61 1030.61,270.32">
    <lane id="-0_0" index="0" disallow="pedestrian tram rail_urban rail rail_electric rail_fast ship" speed="22.22" length="94.56" width="3.75" shape="1108.97,209.87 1107.92,210.81 1106.86,211.75 1105.79,212.72 1104.69,213.71 1103.58,214.71 1102.45,215.73 1101.30,216.78 1100.13,217.84 1098.95,218.92 1097.75,220.02 1096.53,221.13 1095.30,222.27 1094.05,223.42 1092.78,224.59 1091.50,225.77 1090.19,226.98 1088.88,228.20 1087.54,229.44 1086.19,230.69 1084.83,231.97 1083.45,233.25 1082.05,234.56 1080.64,235.88 1079.21,237.22 1077.77,238.57 1076.31,239.94 1074.84,241.32 1073.35,242.72 1071.85,244.14 1070.33,245.57 1068.80,247.01 1067.25,248.47 1065.69,249.95 1064.11,251.43 1062.52,252.94 1060.92,254.46 1059.30,255.99 1057.67,257.53 1056.03,259.09 1054.37,260.66 1052.70,262.25 1051.01,263.85 1049.32,265.46 1047.60,267.09 1045.88,268.73 1044.14,270.38 1042.39,272.04 1040.63,273.72 1039.97,274.34" type="driving"/>
    <lane id="-0_1" index="1" disallow="pedestrian tram rail_urban rail rail_electric rail_fast ship" speed="22.22" length="94.56" width="3.75" shape="1106.47,207.07 1105.43,208.01 1104.36,208.96 1103.28,209.93 1102.18,210.92 1101.06,211.93 1099.93,212.96 1098.78,214.00 1097.61,215.07 1096.42,216.15 1095.22,217.25 1094.00,218.37 1092.76,219.51 1091.51,220.66 1090.24,221.83 1088.95,223.02 1087.65,224.23 1086.33,225.45 1084.99,226.69 1083.64,227.95 1082.27,229.22 1080.89,230.51 1079.49,231.82 1078.08,233.14 1076.65,234.48 1075.20,235.83 1073.74,237.20 1072.27,238.59 1070.78,239.99 1069.28,241.41 1067.76,242.84 1066.22,244.28 1064.68,245.74 1063.11,247.22 1061.54,248.71 1059.95,250.21 1058.34,251.73 1056.72,253.26 1055.09,254.81 1053.45,256.37 1051.79,257.94 1050.12,259.53 1048.43,261.13 1046.73,262.74 1045.02,264.37 1043.30,266.01 1041.56,267.66 1039.81,269.32 1038.05,271.00 1037.39,271.63" type="driving"/>
    <lane id="-0_2" index="2" disallow="pedestrian tram rail_urban rail rail_electric rail_fast ship" speed="22.22" length="94.56" width="3.75" shape="1103.98,204.27 1102.93,205.21 1101.86,206.17 1100.77,207.14 1099.67,208.13 1098.55,209.15 1097.41,210.18 1096.25,211.23 1095.08,212.29 1093.89,213.38 1092.69,214.48 1091.46,215.61 1090.22,216.75 1088.97,217.90 1087.69,219.08 1086.40,220.27 1085.10,221.48 1083.78,222.70 1082.44,223.94 1081.08,225.20 1079.72,226.48 1078.33,227.77 1076.93,229.08 1075.51,230.40 1074.08,231.74 1072.64,233.10 1071.18,234.47 1069.70,235.86 1068.21,237.26 1066.70,238.68 1065.18,240.11 1063.65,241.56 1062.10,243.02 1060.54,244.49 1058.96,245.99 1057.37,247.49 1055.76,249.01 1054.15,250.54 1052.51,252.09 1050.87,253.65 1049.21,255.22 1047.54,256.81 1045.85,258.41 1044.15,260.03 1042.44,261.65 1040.71,263.29 1038.98,264.94 1037.23,266.61 1035.46,268.28 1034.80,268.91" type="driving"/>
  </edge>
  <edge id="-1" from="0" to="2.1" priority="1" type="driving" shape="1030.61,270.32 1029.43,271.44 1028.24,272.57 1027.05,273.70 1025.86,274.84 1024.66,275.98 1023.45,277.13 1022.24,278.28 1021.03,279.43 1019.81,280.60 1018.58,281.76 1017.35,282.93 1016.12,284.11 1014.88,285.29 1013.63,286.47 1012.38,287.66 1011.13,288.86 1009.87,290.06 1008.61,291.26 1007.34,292.47 1006.07,293.68 1004.79,294.89 1003.51,296.11 1002.22,297.34 1000.93,298.56 999.63,299.80 998.33,301.03 997.03,302.27 995.72,303.52 994.41,304.77 993.09,306.02 991.77,307.27 990.44,308.53 989.11,309.80 987.78,311.06 986.44,312.34 985.10,313.61 983.75,314.89 982.40,316.17 981.05,317.45 979.69,318.74 978.33,320.04 976.96,321.33 975.59,322.63 974.21,323.93 972.84,325.24 971.45,326.55 970.07,327.86 968.68,329.17 967.29,330.49 965.89,331.81 964.49,333.13 963.09,334.46 961.68,335.79 960.27,337.12 958.85,338.46 957.43,339.80 956.01,341.14 954.59,342.48 953.16,343.83 951.73,345.18 950.29,346.53 948.85,347.88 947.41,349.24 945.97,350.60 944.52,351.96 943.07,353.33 941.61,354.69 940.16,356.06 938.70,357.43 937.23,358.80 935.77,360.18 934.30,361.56 932.83,362.94 931.35,364.32 929.87,365.70 928.39,367.09 926.91,368.47 925.42,369.86 923.93,371.25 922.44,372.65 920.95,374.04 919.45,375.44 917.95,376.84 916.45,378.23 914.94,379.64 913.43,381.04 911.92,382.44 910.41,383.85 908.90,385.26 907.38,386.66 905.86,388.07 904.34,389.48 902.81,390.90 901.29,392.31 899.76,393.72 898.23,395.14 896.70,396.56 895.16,397.97 893.62,399.39 892.08,400.81 890.54,402.23 889.00,403.65 887.45,405.08 885.91,406.50 884.36,407.92 882.81,409.35 881.25,410.77 879.70,412.20 878.14,413.63 876.58,415.05 875.02,416.48 873.46,417.91 871.90,419.34 870.33,420.76 868.77,422.19 867.20,423.62 865.63,425.05 864.06,426.48 862.49,427.91 860.91,429.34 859.34,430.77 857.76,432.20 856.18,433.63 854.60,435.06 853.02,436.49 851.44,437.92 849.86,439.35 848.27,440.78 846.69,442.21 845.10,443.64 843.51,445.06 841.93,446.49 840.34,447.92 838.75,449.35 837.15,450.77 835.56,452.20 833.97,453.62 832.37,455.05 830.78,456.47 829.18,457.89 827.59,459.32 825.99,460.74 824.39,462.16 822.79,463.58 821.19,465.00 819.59,466.42 817.99,467.83 816.39,469.25 814.79,470.66 813.19,472.08 811.59,473.49 809.98,474.90 808.38,476.31 806.78,477.72 805.17,479.13 803.57,480.53 801.97,481.94 800.36,483.34 798.76,484.74 797.15,486.14 795.55,487.54 793.94,488.93 792.34,490.33 790.73,491.72 789.13,493.11 787.52,494.50 785.92,495.89 784.31,497.28 782.71,498.66 781.10,500.04 779.50,501.42 777.89,502.80 776.29,504.17 774.69,505.55 773.08,506.92 771.48,508.29 769.88,509.65 768.28,511.02 766.68,512.38 765.07,513.74 763.47,515.10 761.87,516.45 760.27,517.80 758.68,519.15 757.08,520.50 755.48,521.84 753.88,523.19 752.29,524.52 750.69,525.86 749.10,527.19 747.50,528.52 745.91,529.85 744.32,531.17 742.73,532.50 741.14,533.81 739.55,535.13 737.96,536.44 736.38,537.75 734.79,539.06 733.21,540.36 731.62,541.66 730.04,542.95 728.46,544.25 726.88,545.54 725.30,546.82 723.72,548.10 722.15,549.38 720.57,550.66 719.00,551.93 717.43,553.20 715.86,554.46 714.29,555.72 712.73,556.98 711.16,558.23 709.60,559.48 708.03,560.72 706.47,561.96 704.92,563.20 703.36,564.43 701.80,565.66 700.25,566.89 698.70,568.11 697.15,569.32 695.60,570.54 694.06,571.74 692.51,572.95 690.97,574.15 689.43,575.34 687.89,576.53 686.36,577.72 684.82,578.90 683.29,580.07 681.76,581.25 680.24,582.41 678.71,583.57 677.19,584.73 675.67,585.89 674.15,587.03 672.63,588.18 671.12,589.31 669.61,590.45 668.10,591.58 666.60,592.70 665.09,593.82 663.59,594.93 662.10,596.04 660.60,597.14 659.11,598.24 657.62,599.33 656.13,600.42 654.65,601.50">