<?xml version='1.0' encoding='UTF-8'?>
<!-- generated on 2022-09-06 02:52:08 by Eclipse SUMO netconvert Version 1.13.0
<configuration xmlns:xsi="http://www.w3.org/2001/XMLSchema-instance" xsi:noNamespaceSchemaLocation="http://sumo.dlr.de/xsd/netconvertConfiguration.xsd">

    <input>
        <opendrive-files value="map\15\17137624\17137624.xodr"/>
    </input>

    <output>
        <output-file value="C:\Users\LinGe\AppData\Local\Temp\tmp7s8w89x9\17137624.net.xml"/>
    </output>

    <processing>
        <geometry.max-grade.fix value="false"/>
    </processing>

    <tls_building>
        <tls.left-green.time value="0"/>
    </tls_building>

    <junctions>
        <rectangular-lane-cut value="true"/>
    </junctions>

    <report>
        <aggregate-warnings value="5"/>
    </report>

</configuration>
-->
<net xmlns:xsi="http://www.w3.org/2001/XMLSchema-instance" version="1.9" junctionCornerDetail="5" rectangularLaneCut="true" limitTurnSpeed="5.50" xsi:noNamespaceSchemaLocation="http://sumo.dlr.de/xsd/net_file.xsd">
  <location netOffset="201.55,201.27" convBoundary="0.00,0.00,1102.63,1134.38" origBoundary="-201.55,-201.27,901.09,933.11" projParameter="!"/>
  <type id="bidirectional" priority="1" speed="1.39" disallow="pedestrian tram rail_urban rail rail_electric rail_fast ship" width="3.65"/>
  <type id="border" priority="0" speed="1.39" disallow="all" discard="1" width="0.10"/>
  <type id="driving" priority="1" speed="13.89" disallow="pedestrian tram rail_urban rail rail_electric rail_fast ship" width="3.65"/>
  <type id="entry" priority="1" speed="22.22" disallow="pedestrian tram rail_urban rail rail_electric rail_fast ship" width="3.65"/>
  <type id="exit" priority="1" speed="22.22" disallow="pedestrian tram rail_urban rail rail_electric rail_fast ship" width="3.65"/>
  <type id="median" priority="0" speed="1.39" disallow="all" discard="1" width="0.10"/>
  <type id="mwyEntry" priority="1" speed="22.22" allow="private emergency authority army vip passenger hov taxi bus coach delivery truck trailer motorcycle evehicle custom1 custom2" width="3.65"/>
  <type id="mwyExit" priority="1" speed="22.22" allow="private emergency authority army vip passenger hov taxi bus coach delivery truck trailer motorcycle evehicle custom1 custom2" width="3.65"/>
  <type id="none" priority="0" speed="1.39" disallow="all" discard="1" width="1.00"/>
  <type id="offRamp" priority="1" speed="22.22" allow="private emergency authority army vip passenger hov taxi bus coach delivery truck trailer motorcycle evehicle custom1 custom2" width="3.65"/>
  <type id="onRamp" priority="1" speed="22.22" allow="private emergency authority army vip passenger hov taxi bus coach delivery truck trailer motorcycle evehicle custom1 custom2" width="3.65"/>
  <type id="parking" priority="1" speed="1.39" disallow="pedestrian tram rail_urban rail rail_electric rail_fast ship" width="2.50"/>
  <type id="rail" priority="3" speed="33.33" allow="rail_urban rail rail_electric rail_fast" width="3.65"/>
  <type id="restricted" priority="0" speed="13.89" disallow="all" width="3.65"/>
  <type id="roadWorks" priority="0" speed="1.39" allow="authority" width="3.65"/>
  <type id="shoulder" priority="0" speed="1.39" disallow="all" discard="1" width="1.00"/>
  <type id="special1" priority="1" speed="22.22" allow="custom1" discard="1" width="3.65"/>
  <type id="special2" priority="1" speed="22.22" allow="custom2" discard="1" width="3.65"/>
  <type id="special3" priority="1" speed="22.22" allow="custom1 custom2" discard="1" width="3.65"/>
  <type id="stop" priority="1" speed="13.89" disallow="pedestrian tram rail_urban rail rail_electric rail_fast ship" width="3.65"/>
  <type id="tram" priority="2" speed="13.89" allow="tram" width="3.65"/>
  <edge id=":0_0" function="internal">
    <lane id=":0_0_0" index="0" disallow="pedestrian tram rail_urban rail rail_electric rail_fast ship" speed="15.28" length="37.66" width="3.75" shape="875.84,714.89 867.07,722.33,0.04 859.10,730.00,0.08 852.79,736.71,0.11 849.02,741.23,0.13"/>
  </edge>
  <edge id=":0_1" function="internal">
    <lane id=":0_1_0" index="0" disallow="pedestrian tram rail_urban rail rail_electric rail_fast ship" speed="22.22" length="38.09" width="3.75" shape="875.84,714.89 845.43,737.97"/>
    <lane id=":0_1_1" index="1" disallow="pedestrian tram rail_urban rail rail_electric rail_fast ship" speed="22.22" length="38.09" width="3.75" shape="873.54,711.93 843.20,734.96"/>
    <lane id=":0_1_2" index="2" disallow="pedestrian tram rail_urban rail rail_electric rail_fast ship" speed="22.22" length="38.09" width="3.75" shape="871.24,708.97 840.97,731.94"/>
  </edge>
  <edge id=":1_0" function="internal">
    <lane id=":1_0_0" index="0" disallow="pedestrian tram rail_urban rail rail_electric rail_fast ship" speed="15.28" length="133.65" width="3.75" shape="307.08,1010.69 425.35,948.45"/>
  </edge>
  <edge id=":1_1" function="internal">
    <lane id=":1_1_0" index="0" disallow="pedestrian tram rail_urban rail rail_electric rail_fast ship" speed="22.22" length="133.72" width="3.75" shape="307.08,1010.69 427.21,952.00"/>
    <lane id=":1_1_1" index="1" disallow="pedestrian tram rail_urban rail rail_electric rail_fast ship" speed="22.22" length="133.72" width="3.75" shape="308.73,1014.05 428.87,955.37"/>
    <lane id=":1_1_2" index="2" disallow="pedestrian tram rail_urban rail rail_electric rail_fast ship" speed="22.22" length="133.72" width="3.75" shape="310.37,1017.42 430.53,958.73"/>
  </edge>
  <edge id=":11.10_0" function="internal">
    <lane id=":11.10_0_0" index="0" disallow="pedestrian tram rail_urban rail rail_electric rail_fast ship" speed="22.22" length="0.30" width="3.75" shape="235.22,220.55,20.00 235.04,220.32,20.00"/>
    <lane id=":11.10_0_1" index="1" disallow="pedestrian tram rail_urban rail rail_electric rail_fast ship" speed="22.22" length="0.30" width="3.75" shape="238.13,218.17,20.00 237.94,217.94,20.00"/>
    <lane id=":11.10_0_2" index="2" disallow="pedestrian tram rail_urban rail rail_electric rail_fast ship" speed="22.22" length="0.30" width="3.75" shape="241.03,215.80,20.00 240.84,215.56,20.00"/>
  </edge>
  <edge id=":13.12_0" function="internal">
    <lane id=":13.12_0_0" index="0" disallow="pedestrian tram rail_urban rail rail_electric rail_fast ship" speed="8.33" length="0.25" width="3.75" shape="609.92,763.33,11.85 609.99,763.08,11.86"/>
  </edge>
  <edge id=":16.15_0" function="internal">
    <lane id=":16.15_0_0" index="0" disallow="pedestrian tram rail_urban rail rail_electric rail_fast ship" speed="22.22" length="0.29" width="3.75" shape="573.08,696.92,14.24 573.38,696.93,14.23"/>
  </edge>
  <edge id=":19.18_0" function="internal">
    <lane id=":19.18_0_0" index="0" disallow="pedestrian tram rail_urban rail rail_electric rail_fast ship" speed="8.33" length="0.29" width="3.75" shape="777.96,967.87,6.45 777.67,967.90,6.46"/>
  </edge>
  <edge id=":2_0" function="internal">
    <lane id=":2_0_0" index="0" disallow="pedestrian tram rail_urban rail rail_electric rail_fast ship" speed="22.22" length="8.07" width="3.75" shape="459.01,541.68,20.00 463.16,548.60,20.00"/>
  </edge>
  <edge id=":2.1_0" function="internal">
    <lane id=":2.1_0_0" index="0" disallow="pedestrian tram rail_urban rail rail_electric rail_fast ship" speed="22.22" length="0.30" width="3.75" shape="767.06,792.24 766.81,792.41"/>
    <lane id=":2.1_0_1" index="1" disallow="pedestrian tram rail_urban rail rail_electric rail_fast ship" speed="22.22" length="0.30" width="3.75" shape="765.02,789.10 764.77,789.26"/>
    <lane id=":2.1_0_2" index="2" disallow="pedestrian tram rail_urban rail rail_electric rail_fast ship" speed="22.22" length="0.30" width="3.75" shape="762.98,785.95 762.74,786.11"/>
  </edge>
  <edge id=":21.20_0" function="internal">
    <lane id=":21.20_0_0" index="0" disallow="pedestrian tram rail_urban rail rail_electric rail_fast ship" speed="11.11" length="0.30" width="3.75" shape="1032.21,1035.73,6.95 1032.07,1035.99,6.95"/>
  </edge>
  <edge id=":3_0" function="internal">
    <lane id=":3_0_0" index="0" disallow="pedestrian tram rail_urban rail rail_electric rail_fast ship" speed="15.28" length="8.00" width="3.75" shape="444.16,560.76,20.00 439.91,553.98,20.00"/>
  </edge>
  <edge id=":4_0" function="internal">
    <lane id=":4_0_0" index="0" disallow="pedestrian tram rail_urban rail rail_electric rail_fast ship" speed="22.22" length="84.25" width="3.75" shape="967.00,602.64,0.00 977.26,594.38,0.00 996.70,578.33,0.00 1017.45,560.92,0.00 1031.61,548.58"/>
  </edge>
  <edge id=":4_1" function="internal">
    <lane id=":4_1_0" index="0" disallow="pedestrian tram rail_urban rail rail_electric rail_fast ship" speed="22.22" length="84.02" width="3.75" shape="969.97,605.59 1031.61,548.58"/>
    <lane id=":4_1_1" index="1" disallow="pedestrian tram rail_urban rail rail_electric rail_fast ship" speed="22.22" length="84.02" width="3.75" shape="972.49,608.37 1034.17,551.32"/>
    <lane id=":4_1_2" index="2" disallow="pedestrian tram rail_urban rail rail_electric rail_fast ship" speed="22.22" length="84.02" width="3.75" shape="975.01,611.15 1036.72,554.07"/>
  </edge>
  <edge id=":5_0" function="internal">
    <lane id=":5_0_0" index="0" disallow="pedestrian tram rail_urban rail rail_electric rail_fast ship" speed="22.22" length="3.01" width="3.75" shape="579.78,697.08,13.88 582.78,697.19,13.72"/>
  </edge>
  <edge id=":5_1" function="internal">
    <lane id=":5_1_0" index="0" disallow="pedestrian tram rail_urban rail rail_electric rail_fast ship" speed="16.67" length="3.00" width="3.75" shape="579.78,697.08,13.88 582.77,697.19,13.80"/>
  </edge>
  <edge id=":6_0" function="internal">
    <lane id=":6_0_0" index="0" disallow="pedestrian tram rail_urban rail rail_electric rail_fast ship" speed="8.33" length="25.01" width="3.75" shape="611.13,756.80,13.15 610.83,751.53,13.16 609.54,744.45,13.18 607.77,737.45,13.20 606.03,732.43,13.21"/>
  </edge>
  <edge id=":6_1" function="internal">
    <lane id=":6_1_0" index="0" disallow="pedestrian tram rail_urban rail rail_electric rail_fast ship" speed="8.33" length="23.81" width="3.75" shape="615.44,754.30,13.10 606.03,732.43,13.21"/>
  </edge>
  <edge id=":6.5_0" function="internal">
    <lane id=":6.5_0_0" index="0" disallow="pedestrian tram rail_urban rail rail_electric rail_fast ship" speed="22.22" length="0.30" width="3.75" shape="754.45,773.31 754.70,773.15"/>
    <lane id=":6.5_0_1" index="1" disallow="pedestrian tram rail_urban rail rail_electric rail_fast ship" speed="22.22" length="0.30" width="3.75" shape="756.49,776.46 756.74,776.29"/>
    <lane id=":6.5_0_2" index="2" disallow="pedestrian tram rail_urban rail rail_electric rail_fast ship" speed="22.22" length="0.30" width="3.75" shape="758.52,779.61 758.78,779.44"/>
  </edge>
  <edge id=":7_0" function="internal">
    <lane id=":7_0_0" index="0" disallow="pedestrian tram rail_urban rail rail_electric rail_fast ship" speed="16.67" length="29.41" width="3.75" shape="468.03,963.50,0.02 463.36,963.85,0.01 456.97,964.94,0.01 449.06,967.22,0.01 439.83,971.11"/>
  </edge>
  <edge id=":7_1" function="internal">
    <lane id=":7_1_0" index="0" disallow="pedestrian tram rail_urban rail rail_electric rail_fast ship" speed="22.22" length="28.27" width="3.75" shape="465.17,958.56 439.83,971.11"/>
    <lane id=":7_1_1" index="1" disallow="pedestrian tram rail_urban rail rail_electric rail_fast ship" speed="22.22" length="28.27" width="3.75" shape="463.50,955.20 438.17,967.75"/>
    <lane id=":7_1_2" index="2" disallow="pedestrian tram rail_urban rail rail_electric rail_fast ship" speed="22.22" length="28.27" width="3.75" shape="461.83,951.84 436.51,964.39"/>
  </edge>
  <edge id=":9.8_0" function="internal">
    <lane id=":9.8_0_0" index="0" disallow="pedestrian tram rail_urban rail rail_electric rail_fast ship" speed="22.22" length="0.30" width="3.75" shape="252.64,205.91,20.00 252.84,206.15,20.00"/>
    <lane id=":9.8_0_1" index="1" disallow="pedestrian tram rail_urban rail rail_electric rail_fast ship" speed="22.22" length="0.30" width="3.75" shape="249.74,208.29,20.00 249.93,208.52,20.00"/>
    <lane id=":9.8_0_2" index="2" disallow="pedestrian tram rail_urban rail rail_electric rail_fast ship" speed="22.22" length="0.30" width="3.75" shape="246.84,210.66,20.00 247.03,210.89,20.00"/>
  </edge>
  <edge id="-0" from="0.begin" to="0" priority="1" type="driving" shape="1102.63,502.95 1101.50,503.89 1100.36,504.83 1099.22,505.79 1098.08,506.75 1096.93,507.71 1095.78,508.68 1094.63,509.66 1093.47,510.65 1092.31,511.64 1091.15,512.64 1089.99,513.64 1088.82,514.65 1087.65,515.67 1086.47,516.69 1085.30,517.72 1084.12,518.75 1082.93,519.80 1081.74,520.84 1080.55,521.90 1079.36,522.95 1078.16,524.02 1076.96,525.09 1075.76,526.17 1074.55,527.25 1073.34,528.34 1072.12,529.43 1070.90,530.53 1069.68,531.63 1068.45,532.75 1067.22,533.86 1065.99,534.98 1064.75,536.11 1063.51,537.24 1062.26,538.38 1061.01,539.53 1059.76,540.68 1058.50,541.83 1057.24,542.99 1055.97,544.16 1054.70,545.33 1053.43,546.50 1052.15,547.69 1050.87,548.87 1049.58,550.06 1048.29,551.26 1046.99,552.46 1045.69,553.67 1044.39,554.88 1043.08,556.10 1041.76,557.32 1040.44,558.55 1039.12,559.78 1037.79,561.02 1036.46,562.26 1035.12,563.50 1033.78,564.75 1032.43,566.01 1031.08,567.27 1029.73,568.54 1028.36,569.81 1027.00,571.08 1025.63,572.36 1024.25,573.64 1022.87,574.93 1021.48,576.22 1020.09,577.52 1018.69,578.82 1017.29,580.13 1015.88,581.44 1014.47,582.75 1013.05,584.07 1011.63,585.39 1010.20,586.72 1008.76,588.05 1007.32,589.39 1005.88,590.73 1004.43,592.07 1002.97,593.42 1001.51,594.77 1000.04,596.13 998.56,597.49 997.08,598.85 995.60,600.22 994.11,601.59 992.61,602.97 991.11,604.35 989.60,605.73 988.08,607.11 986.56,608.51 985.04,609.90 983.50,611.30 981.96,612.70 980.42,614.10 978.87,615.51 977.31,616.92 975.74,618.34 974.17,619.76 972.60,621.18 971.01,622.60 969.42,624.03 967.83,625.47 966.23,626.90 964.62,628.34 963.00,629.78 961.38,631.23 959.75,632.68 958.11,634.13 956.47,635.58 954.82,637.04 953.16,638.50 951.50,639.96 949.83,641.43 948.15,642.90 946.47,644.37 944.78,645.85 943.08,647.32 941.38,648.80 939.66,650.29 937.94,651.77 936.22,653.26 934.48,654.75 932.74,656.25 931.00,657.74 929.24,659.24 927.48,660.75 925.71,662.25 923.93,663.76 922.14,665.27 920.35,666.78 918.55,668.29 916.74,669.81 914.93,671.33 913.10,672.85 911.27,674.37 909.43,675.90 907.58,677.42 905.73,678.95 903.87,680.48 902.00,682.02 900.12,683.55 898.23,685.09 896.34,686.63 894.44,688.17 892.53,689.72 890.61,691.26 888.68,692.81 886.74,694.36 884.80,695.91 882.85,697.46 880.89,699.02 878.92,700.57 876.94,702.13 874.96,703.69 872.97,705.25 870.96,706.81 868.95,708.38 866.93,709.94">
    <lane id="-0_0" index="0" disallow="pedestrian tram rail_urban rail rail_electric rail_fast ship" speed="22.22" length="309.98" width="3.75" shape="1108.61,510.17 1107.49,511.10 1106.36,512.03 1105.24,512.97 1104.11,513.92 1102.98,514.88 1101.84,515.84 1100.70,516.80 1099.56,517.78 1098.41,518.76 1097.27,519.74 1096.11,520.74 1094.96,521.74 1093.80,522.74 1092.64,523.76 1091.47,524.78 1090.30,525.80 1089.13,526.83 1087.95,527.87 1086.77,528.91 1085.58,529.96 1084.40,531.02 1083.20,532.08 1082.01,533.15 1080.81,534.23 1079.60,535.31 1078.40,536.39 1077.19,537.49 1075.97,538.59 1074.75,539.69 1073.53,540.80 1072.30,541.92 1071.07,543.04 1069.83,544.17 1068.59,545.30 1067.35,546.44 1066.10,547.58 1064.84,548.73 1063.59,549.89 1062.33,551.05 1061.06,552.22 1059.79,553.39 1058.51,554.57 1057.23,555.75 1055.95,556.94 1054.66,558.14 1053.37,559.33 1052.07,560.54 1050.77,561.75 1049.46,562.96 1048.15,564.18 1046.83,565.41 1045.51,566.64 1044.18,567.88 1042.85,569.12 1041.52,570.36 1040.17,571.61 1038.83,572.87 1037.48,574.13 1036.12,575.39 1034.76,576.66 1033.39,577.94 1032.02,579.22 1030.64,580.50 1029.26,581.79 1027.87,583.08 1026.48,584.38 1025.08,585.68 1023.68,586.99 1022.27,588.30 1020.85,589.62 1019.43,590.94 1018.01,592.26 1016.58,593.59 1015.14,594.93 1013.70,596.26 1012.25,597.61 1010.79,598.95 1009.33,600.30 1007.87,601.66 1006.40,603.02 1004.92,604.38 1003.44,605.75 1001.95,607.12 1000.45,608.49 998.95,609.87 997.44,611.25 995.93,612.64 994.41,614.03 992.89,615.43 991.35,616.83 989.82,618.23 988.27,619.63 986.72,621.04 985.16,622.46 983.60,623.87 982.03,625.29 980.46,626.72 978.87,628.14 977.28,629.57 975.69,631.01 974.09,632.45 972.48,633.89 970.86,635.33 969.24,636.78 967.61,638.23 965.97,639.68 964.33,641.14 962.68,642.60 961.02,644.07 959.36,645.53 957.69,647.00 956.01,648.48 954.33,649.95 952.64,651.43 950.94,652.91 949.23,654.40 947.52,655.89 945.80,657.38 944.07,658.87 942.34,660.37 940.59,661.86 938.84,663.37 937.09,664.87 935.32,666.38 933.55,667.89 931.77,669.40 929.98,670.91 928.19,672.43 926.39,673.95 924.58,675.47 922.76,677.00 920.93,678.52 919.10,680.05 917.26,681.58 915.41,683.12 913.55,684.65 911.69,686.19 909.82,687.73 907.94,689.27 906.05,690.82 904.15,692.36 902.25,693.91 900.33,695.46 898.41,697.01 896.48,698.57 894.54,700.12 892.60,701.68 890.64,703.24 888.68,704.80 886.71,706.37 884.73,707.93 882.74,709.50 880.74,711.07 878.74,712.64 876.72,714.21 875.84,714.89" type="driving"/>
    <lane id="-0_1" index="1" disallow="pedestrian tram rail_urban rail rail_electric rail_fast ship" speed="22.22" length="309.98" width="3.75" shape="1106.22,507.28 1105.09,508.21 1103.96,509.15 1102.83,510.10 1101.70,511.05 1100.56,512.01 1099.42,512.98 1098.27,513.95 1097.12,514.93 1095.97,515.91 1094.82,516.90 1093.66,517.90 1092.50,518.90 1091.34,519.91 1090.17,520.93 1089.00,521.95 1087.83,522.98 1086.65,524.02 1085.47,525.06 1084.28,526.11 1083.09,527.16 1081.90,528.22 1080.71,529.29 1079.51,530.36 1078.30,531.44 1077.10,532.52 1075.89,533.61 1074.67,534.70 1073.45,535.81 1072.23,536.91 1071.01,538.03 1069.77,539.14 1068.54,540.27 1067.30,541.40 1066.06,542.53 1064.81,543.67 1063.56,544.82 1062.31,545.97 1061.05,547.13 1059.78,548.29 1058.52,549.46 1057.24,550.64 1055.97,551.82 1054.69,553.00 1053.40,554.19 1052.11,555.39 1050.82,556.59 1049.52,557.79 1048.22,559.00 1046.91,560.22 1045.59,561.44 1044.28,562.66 1042.95,563.90 1041.63,565.13 1040.30,566.37 1038.96,567.62 1037.62,568.87 1036.27,570.12 1034.92,571.38 1033.56,572.65 1032.20,573.92 1030.83,575.19 1029.46,576.47 1028.09,577.76 1026.70,579.05 1025.32,580.34 1023.92,581.64 1022.53,582.94 1021.12,584.24 1019.71,585.56 1018.30,586.87 1016.88,588.19 1015.45,589.52 1014.02,590.84 1012.59,592.18 1011.15,593.51 1009.70,594.85 1008.25,596.20 1006.79,597.55 1005.32,598.90 1003.85,600.26 1002.38,601.62 1000.90,602.99 999.41,604.36 997.91,605.73 996.42,607.11 994.91,608.49 993.40,609.88 991.88,611.27 990.36,612.66 988.83,614.05 987.29,615.45 985.75,616.86 984.20,618.27 982.65,619.68 981.08,621.09 979.52,622.51 977.94,623.93 976.36,625.36 974.78,626.79 973.18,628.22 971.58,629.65 969.98,631.09 968.36,632.54 966.74,633.98 965.12,635.43 963.48,636.88 961.84,638.34 960.20,639.79 958.54,641.26 956.88,642.72 955.21,644.19 953.54,645.66 951.86,647.13 950.17,648.61 948.47,650.09 946.77,651.57 945.06,653.05 943.35,654.54 941.62,656.03 939.89,657.52 938.15,659.02 936.40,660.52 934.65,662.02 932.89,663.52 931.12,665.03 929.35,666.54 927.56,668.05 925.77,669.56 923.97,671.08 922.17,672.60 920.35,674.12 918.53,675.64 916.70,677.17 914.86,678.70 913.02,680.23 911.17,681.76 909.31,683.29 907.44,684.83 905.56,686.37 903.68,687.91 901.78,689.45 899.88,691.00 897.97,692.55 896.06,694.09 894.13,695.65 892.20,697.20 890.26,698.75 888.31,700.31 886.35,701.87 884.38,703.43 882.41,704.99 880.42,706.55 878.43,708.12 876.43,709.68 874.42,711.25 873.54,711.93" type="driving"/>
    <lane id="-0_2" index="2" disallow="pedestrian tram rail_urban rail rail_electric rail_fast ship" speed="22.22" length="309.98" width="3.75" shape="1103.83,504.39 1102.70,505.33 1101.56,506.27 1100.42,507.22 1099.28,508.18 1098.14,509.14 1096.99,510.11 1095.84,511.09 1094.69,512.07 1093.53,513.06 1092.37,514.06 1091.21,515.06 1090.05,516.07 1088.88,517.08 1087.71,518.10 1086.53,519.13 1085.35,520.16 1084.17,521.20 1082.99,522.25 1081.80,523.30 1080.60,524.36 1079.41,525.42 1078.21,526.49 1077.01,527.56 1075.80,528.64 1074.59,529.73 1073.38,530.82 1072.16,531.92 1070.94,533.02 1069.71,534.13 1068.48,535.25 1067.25,536.37 1066.01,537.50 1064.77,538.63 1063.53,539.77 1062.28,540.91 1061.03,542.06 1059.77,543.21 1058.51,544.37 1057.24,545.54 1055.97,546.71 1054.70,547.88 1053.42,549.06 1052.14,550.25 1050.85,551.44 1049.56,552.64 1048.27,553.84 1046.97,555.04 1045.66,556.25 1044.35,557.47 1043.04,558.69 1041.72,559.92 1040.40,561.15 1039.07,562.39 1037.74,563.63 1036.40,564.87 1035.06,566.13 1033.71,567.38 1032.36,568.64 1031.00,569.91 1029.64,571.18 1028.28,572.45 1026.90,573.73 1025.53,575.01 1024.15,576.30 1022.76,577.60 1021.37,578.89 1019.97,580.19 1018.57,581.50 1017.16,582.81 1015.75,584.13 1014.33,585.44 1012.90,586.77 1011.47,588.10 1010.04,589.43 1008.60,590.76 1007.15,592.10 1005.70,593.45 1004.24,594.80 1002.78,596.15 1001.31,597.51 999.84,598.87 998.36,600.23 996.87,601.60 995.38,602.97 993.88,604.35 992.38,605.73 990.87,607.11 989.35,608.50 987.83,609.89 986.30,611.28 984.77,612.68 983.23,614.08 981.68,615.49 980.13,616.90 978.57,618.31 977.00,619.73 975.43,621.15 973.85,622.57 972.27,624.00 970.68,625.43 969.08,626.86 967.48,628.30 965.86,629.74 964.25,631.18 962.62,632.63 960.99,634.08 959.36,635.53 957.71,636.99 956.06,638.44 954.40,639.91 952.74,641.37 951.07,642.84 949.39,644.31 947.70,645.78 946.01,647.26 944.31,648.74 942.61,650.22 940.89,651.71 939.17,653.19 937.44,654.68 935.71,656.18 933.96,657.67 932.21,659.17 930.46,660.67 928.69,662.17 926.92,663.68 925.14,665.19 923.35,666.70 921.56,668.21 919.76,669.73 917.95,671.25 916.13,672.77 914.30,674.29 912.47,675.81 910.63,677.34 908.78,678.87 906.92,680.40 905.06,681.93 903.19,683.47 901.30,685.01 899.42,686.55 897.52,688.09 895.62,689.63 893.70,691.18 891.78,692.72 889.85,694.27 887.92,695.82 885.97,697.38 884.02,698.93 882.05,700.49 880.08,702.04 878.10,703.60 876.12,705.17 874.12,706.73 872.12,708.29 871.24,708.97" type="driving"/>
  </edge>
  <edge id="-1" from="0" to="2.1" priority="1" type="driving" shape="866.93,709.94 865.47,711.07 864.00,712.20 862.53,713.34 861.05,714.47 859.57,715.60 858.09,716.74 856.60,717.87 855.10,719.01 853.60,720.15 852.10,721.28 850.59,722.42 849.08,723.56 847.56,724.70 846.04,725.84 844.51,726.98 842.98,728.12 841.44,729.26 839.90,730.40 838.35,731.54 836.80,732.69 835.25,733.83 833.69,734.97 832.12,736.12 830.55,737.26 828.98,738.41 827.40,739.55 825.81,740.70 824.22,741.85 822.63,742.99 821.03,744.14 819.42,745.29 817.81,746.44 816.20,747.58 814.58,748.73 812.96,749.88 811.33,751.03 809.69,752.18 808.05,753.33 806.41,754.48 804.76,755.63 803.11,756.78 801.45,757.94 799.78,759.09 798.11,760.24 796.44,761.39 794.76,762.54 793.07,763.69 791.38,764.85 789.69,766.00 787.99,767.15 786.28,768.31 784.57,769.46 782.85,770.61 781.13,771.77 779.40,772.92 777.67,774.07 775.93,775.23 774.19,776.38 772.44,777.53 770.69,778.69 768.93,779.84 767.17,780.99 765.40,782.15 763.62,783.30 761.84,784.46">
    <lane id="-1_0" index="0" disallow="pedestrian tram rail_urban rail rail_electric rail_fast ship" speed="22.22" length="95.11" width="3.75" shape="845.43,737.97 843.92,739.09 842.36,740.24 840.79,741.39 839.22,742.54 837.65,743.69 836.07,744.84 834.48,745.99 832.89,747.15 831.30,748.30 829.70,749.45 828.10,750.61 826.49,751.76 824.87,752.92 823.25,754.07 821.63,755.23 820.00,756.38 818.37,757.54 816.73,758.70 815.08,759.85 813.43,761.01 811.78,762.17 810.12,763.33 808.45,764.48 806.78,765.64 805.11,766.80 803.43,767.96 801.74,769.12 800.05,770.28 798.36,771.44 796.66,772.60 794.95,773.76 793.24,774.92 791.52,776.08 789.80,777.24 788.08,778.40 786.34,779.56 784.61,780.72 782.86,781.88 781.11,783.04 779.36,784.20 777.60,785.36 775.84,786.52 774.07,787.68 772.29,788.84 770.51,790.00 768.73,791.17 767.06,792.24" type="driving"/>
    <lane id="-1_1" index="1" disallow="pedestrian tram rail_urban rail rail_electric rail_fast ship" speed="22.22" length="95.11" width="3.75" shape="843.20,734.96 841.69,736.07 840.14,737.22 838.58,738.36 837.01,739.51 835.44,740.66 833.86,741.81 832.28,742.96 830.70,744.11 829.10,745.26 827.51,746.41 825.91,747.56 824.30,748.71 822.69,749.86 821.08,751.02 819.46,752.17 817.83,753.32 816.20,754.48 814.57,755.63 812.93,756.78 811.28,757.94 809.63,759.09 807.98,760.25 806.31,761.40 804.65,762.56 802.98,763.71 801.30,764.87 799.62,766.03 797.93,767.18 796.24,768.34 794.55,769.50 792.85,770.65 791.14,771.81 789.43,772.97 787.71,774.13 785.99,775.28 784.26,776.44 782.52,777.60 780.79,778.76 779.04,779.91 777.29,781.07 775.54,782.23 773.78,783.39 772.01,784.55 770.24,785.70 768.47,786.86 766.68,788.02 765.02,789.10" type="driving"/>
    <lane id="-1_2" index="2" disallow="pedestrian tram rail_urban rail rail_electric rail_fast ship" speed="22.22" length="95.11" width="3.75" shape="840.97,731.94 839.47,733.05 837.91,734.20 836.36,735.34 834.79,736.49 833.23,737.63 831.65,738.78 830.08,739.92 828.50,741.07 826.91,742.22 825.32,743.37 823.72,744.52 822.12,745.66 820.51,746.81 818.90,747.96 817.29,749.11 815.66,750.26 814.04,751.41 812.41,752.56 810.77,753.72 809.13,754.87 807.48,756.02 805.83,757.17 804.17,758.32 802.51,759.48 800.85,760.63 799.17,761.78 797.50,762.94 795.82,764.09 794.13,765.24 792.44,766.40 790.74,767.55 789.04,768.71 787.33,769.86 785.61,771.01 783.90,772.17 782.17,773.32 780.44,774.48 778.71,775.63 776.97,776.79 775.23,777.94 773.47,779.10 771.72,780.25 769.96,781.41 768.19,782.56 766.42,783.72 764.64,784.87 762.98,785.95" type="driving"/>
  </edge>
  <edge id="-10" from="3" to="11.10" priority="1" type="driving" shape="450.00,552.53,20.00 449.21,551.25,20.00 448.43,549.96,20.00 447.65,548.67,20.00 446.87,547.38,20.00 446.10,546.08,20.00 445.33,544.79,20.00 444.56,543.49,20.00 443.80,542.19,20.00 443.03,540.89,20.00 442.27,539.58,20.00 441.52,538.28,20.00 440.76,536.97,20.00 440.01,535.66,20.00 439.26,534.34,20.00 438.52,533.03,20.00 437.77,531.71,20.00 437.03,530.39,20.00 436.29,529.06,20.00 435.55,527.74,20.00 434.82,526.41,20.00 434.08,525.08,20.00 433.35,523.74,20.00 432.62,522.41,20.00 431.89,521.07,20.00 431.16,519.72,20.00 430.43,518.38,20.00 429.70,517.03,20.00 428.98,515.68,20.00 428.25,514.33,20.00 427.53,512.97,20.00 426.81,511.61,20.00 426.09,510.25,20.00 425.36,508.88,20.00 424.64,507.51,20.00 423.92,506.14,20.00 423.20,504.77,20.00 422.48,503.39,20.00 421.76,502.01,20.00 421.05,500.63,20.00 420.33,499.24,20.00 419.61,497.85,20.00 418.89,496.45,20.00 418.17,495.06,20.00 417.45,493.66,20.00 416.73,492.25,20.00 416.00,490.84,20.00 415.28,489.43,20.00 414.56,488.02,20.00 413.84,486.60,20.00 413.11,485.18,20.00 412.38,483.75,20.00 411.66,482.32,20.00 410.93,480.89,20.00 410.20,479.45,20.00 409.47,478.01,20.00 408.74,476.57,20.00 408.00,475.12,20.00 407.27,473.67,20.00 406.53,472.22,20.00 405.79,470.76,20.00 405.05,469.29,20.00 404.31,467.83,20.00 403.56,466.35,20.00 402.81,464.88,20.00 402.06,463.40,20.00 401.31,461.92,20.00 400.56,460.43,20.00 399.80,458.94,20.00 399.04,457.44,20.00 398.27,455.94,20.00 397.51,454.43,20.00 396.74,452.93,20.00 395.97,451.41,20.00 395.19,449.89,20.00 394.41,448.37,20.00 393.63,446.85,20.00 392.85,445.31,20.00 392.06,443.78,20.00 391.26,442.24,20.00 390.47,440.69,20.00 389.67,439.14,20.00 388.86,437.59,20.00 388.06,436.03,20.00 387.24,434.47,20.00 386.43,432.90,20.00 385.61,431.33,20.00 384.78,429.75,20.00 383.95,428.17,20.00 383.12,426.58,20.00 382.28,424.99,20.00 381.44,423.39,20.00 380.59,421.79,20.00 379.73,420.18,20.00 378.88,418.57,20.00 378.01,416.95,20.00 377.14,415.33,20.00 376.27,413.70,20.00 375.39,412.07,20.00 374.51,410.43,20.00 373.62,408.78,20.00 372.72,407.14,20.00 371.82,405.48,20.00 370.91,403.82,20.00 370.00,402.16,20.00 369.08,400.49,20.00 368.15,398.81,20.00 367.22,397.13,20.00 366.28,395.44,20.00 365.34,393.75,20.00 364.38,392.05,20.00 363.43,390.35,20.00 362.46,388.64,20.00 361.49,386.93,20.00 360.51,385.21,20.00 359.53,383.48,20.00 358.53,381.75,20.00 357.54,380.01,20.00 356.53,378.27,20.00 355.51,376.52,20.00 354.49,374.76,20.00 353.46,373.00,20.00 352.43,371.23,20.00 351.38,369.46,20.00 350.33,367.68,20.00 349.27,365.89,20.00 348.20,364.10,20.00 347.13,362.30,20.00 346.04,360.50,20.00 344.95,358.69,20.00 343.85,356.87,20.00 342.74,355.05,20.00 341.62,353.22,20.00 340.49,351.38,20.00 339.36,349.54,20.00 338.22,347.69,20.00 337.06,345.84,20.00 335.90,343.98,20.00 334.73,342.11,20.00 333.55,340.23,20.00 332.36,338.35,20.00 331.16,336.47,20.00 329.95,334.57,20.00 328.73,332.67,20.00 327.51,330.76,20.00 326.27,328.85,20.00 325.02,326.93,20.00 323.76,325.00,20.00 322.50,323.06,20.00 321.22,321.12,20.00 319.93,319.17,20.00 318.63,317.22,20.00 317.32,315.25,20.00 316.01,313.28,20.00 314.68,311.31,20.00 313.34,309.32,20.00 311.98,307.33,20.00 310.62,305.33,20.00 309.25,303.33,20.00 307.87,301.32,20.00 306.47,299.30,20.00 305.07,297.27,20.00 303.65,295.23,20.00 302.22,293.19,20.00 300.78,291.14,20.00 299.33,289.09,20.00 297.86,287.02,20.00 296.39,284.95,20.00 294.90,282.87,20.00 293.40,280.78,20.00 291.89,278.69,20.00 290.36,276.59,20.00 288.83,274.48,20.00 287.28,272.36,20.00 285.72,270.23,20.00 284.15,268.10,20.00 282.56,265.96,20.00 280.96,263.81,20.00 279.35,261.66,20.00 277.73,259.49,20.00 276.09,257.32,20.00 274.44,255.14,20.00 272.78,252.95,20.00 271.10,250.76,20.00 269.41,248.55,20.00 267.70,246.34,20.00 265.99,244.12,20.00 264.26,241.89,20.00 262.51,239.65,20.00 260.75,237.41,20.00 258.98,235.15,20.00 257.19,232.89,20.00 255.39,230.62,20.00 253.58,228.34,20.00 251.75,226.06,20.00 249.91,223.76,20.00 248.05,221.46,20.00 246.18,219.15,20.00 244.29,216.83,20.00 242.39,214.50,20.00">