<?xml version='1.0' encoding='UTF-8'?>
<!-- generated on 2022-09-05 16:14:57 by Eclipse SUMO netconvert Version 1.13.0
<configuration xmlns:xsi="http://www.w3.org/2001/XMLSchema-instance" xsi:noNamespaceSchemaLocation="http://sumo.dlr.de/xsd/netconvertConfiguration.xsd">

    <input>
        <opendrive-files value="map\classification\12\11367357\11367357.xodr"/>
    </input>

    <output>
        <output-file value="C:\Users\LinGe\AppData\Local\Temp\tmpqh1uh_f5\11367357.net.xml"/>
    </output>

    <processing>
        <geometry.max-grade.fix value="false"/>
    </processing>

    <tls_building>
        <tls.left-green.time value="0"/>
    </tls_building>

    <junctions>
        <rectangular-lane-cut value="true"/>
    </junctions>

    <report>
        <aggregate-warnings value="5"/>
    </report>

</configuration>
-->
<net xmlns:xsi="http://www.w3.org/2001/XMLSchema-instance" version="1.9" junctionCornerDetail="5" rectangularLaneCut="true" limitTurnSpeed="5.50" xsi:noNamespaceSchemaLocation="http://sumo.dlr.de/xsd/net_file.xsd">
  <location netOffset="1.56,101.26" convBoundary="0.00,0.00,1102.73,1302.51" origBoundary="-1.56,-101.26,1101.18,1201.26" projParameter="!"/>
  <type id="bidirectional" priority="1" speed="1.39" disallow="pedestrian tram rail_urban rail rail_electric rail_fast ship" width="3.65"/>
  <type id="border" priority="0" speed="1.39" disallow="all" discard="1" width="0.10"/>
  <type id="driving" priority="1" speed="13.89" disallow="pedestrian tram rail_urban rail rail_electric rail_fast ship" width="3.65"/>
  <type id="entry" priority="1" speed="22.22" disallow="pedestrian tram rail_urban rail rail_electric rail_fast ship" width="3.65"/>
  <type id="exit" priority="1" speed="22.22" disallow="pedestrian tram rail_urban rail rail_electric rail_fast ship" width="3.65"/>
  <type id="median" priority="0" speed="1.39" disallow="all" discard="1" width="0.10"/>
  <type id="mwyEntry" priority="1" speed="22.22" allow="private emergency authority army vip passenger hov taxi bus coach delivery truck trailer motorcycle evehicle custom1 custom2" width="3.65"/>
  <type id="mwyExit" priority="1" speed="22.22" allow="private emergency authority army vip passenger hov taxi bus coach delivery truck trailer motorcycle evehicle custom1 custom2" width="3.65"/>
  <type id="none" priority="0" speed="1.39" disallow="all" discard="1" width="1.00"/>
  <type id="offRamp" priority="1" speed="22.22" allow="private emergency authority army vip passenger hov taxi bus coach delivery truck trailer motorcycle evehicle custom1 custom2" width="3.65"/>
  <type id="onRamp" priority="1" speed="22.22" allow="private emergency authority army vip passenger hov taxi bus coach delivery truck trailer motorcycle evehicle custom1 custom2" width="3.65"/>
  <type id="parking" priority="1" speed="1.39" disallow="pedestrian tram rail_urban rail rail_electric rail_fast ship" width="2.50"/>
  <type id="rail" priority="3" speed="33.33" allow="rail_urban rail rail_electric rail_fast" width="3.65"/>
  <type id="restricted" priority="0" speed="13.89" disallow="all" width="3.65"/>
  <type id="roadWorks" priority="0" speed="1.39" allow="authority" width="3.65"/>
  <type id="shoulder" priority="0" speed="1.39" disallow="all" discard="1" width="1.00"/>
  <type id="special1" priority="1" speed="22.22" allow="custom1" discard="1" width="3.65"/>
  <type id="special2" priority="1" speed="22.22" allow="custom2" discard="1" width="3.65"/>
  <type id="special3" priority="1" speed="22.22" allow="custom1 custom2" discard="1" width="3.65"/>
  <type id="stop" priority="1" speed="13.89" disallow="pedestrian tram rail_urban rail rail_electric rail_fast ship" width="3.65"/>
  <type id="tram" priority="2" speed="13.89" allow="tram" width="3.65"/>
  <edge id=":0_0" function="internal">
    <lane id=":0_0_0" index="0" disallow="pedestrian tram rail_urban rail rail_electric rail_fast ship" speed="15.28" length="60.87" width="3.75" shape="983.58,280.10 970.62,287.91,0.05 954.62,298.25,0.11 940.33,307.78,0.16 932.50,313.19,0.19"/>
  </edge>
  <edge id=":0_1" function="internal">
    <lane id=":0_1_0" index="0" disallow="pedestrian tram rail_urban rail rail_electric rail_fast ship" speed="22.22" length="60.97" width="3.75" shape="983.58,280.10 930.24,309.60"/>
    <lane id=":0_1_1" index="1" disallow="pedestrian tram rail_urban rail rail_electric rail_fast ship" speed="22.22" length="60.97" width="3.75" shape="981.77,276.82 928.41,306.33"/>
    <lane id=":0_1_2" index="2" disallow="pedestrian tram rail_urban rail rail_electric rail_fast ship" speed="22.22" length="60.97" width="3.75" shape="979.96,273.53 926.59,303.05"/>
  </edge>
  <edge id=":1_0" function="internal">
    <lane id=":1_0_0" index="0" disallow="pedestrian tram rail_urban rail rail_electric rail_fast ship" speed="16.67" length="40.64" width="3.75" shape="78.19,918.99 86.78,910.67,0.04 94.92,901.74,0.08 101.49,893.90,0.11 105.37,888.86,0.13"/>
  </edge>
  <edge id=":1_1" function="internal">
    <lane id=":1_1_0" index="0" disallow="pedestrian tram rail_urban rail rail_electric rail_fast ship" speed="22.22" length="40.86" width="3.75" shape="78.19,918.99 108.81,891.93"/>
    <lane id=":1_1_1" index="1" disallow="pedestrian tram rail_urban rail rail_electric rail_fast ship" speed="22.22" length="40.86" width="3.75" shape="80.67,921.80 111.29,894.74"/>
    <lane id=":1_1_2" index="2" disallow="pedestrian tram rail_urban rail rail_electric rail_fast ship" speed="22.22" length="40.86" width="3.75" shape="83.16,924.61 113.77,897.55"/>
  </edge>
  <edge id=":14.13_0" function="internal">
    <lane id=":14.13_0_0" index="0" disallow="pedestrian tram rail_urban rail rail_electric rail_fast ship" speed="22.22" length="0.30" width="3.75" shape="450.29,669.85,20.00 450.10,669.61,20.00"/>
    <lane id=":14.13_0_1" index="1" disallow="pedestrian tram rail_urban rail rail_electric rail_fast ship" speed="22.22" length="0.30" width="3.75" shape="453.21,667.49,20.00 453.02,667.26,20.00"/>
    <lane id=":14.13_0_2" index="2" disallow="pedestrian tram rail_urban rail rail_electric rail_fast ship" speed="22.22" length="0.30" width="3.75" shape="456.12,665.13,20.00 455.94,664.90,20.00"/>
  </edge>
  <edge id=":17.16_0" function="internal">
    <lane id=":17.16_0_0" index="0" disallow="pedestrian tram rail_urban rail rail_electric rail_fast ship" speed="8.33" length="0.29" width="3.75" shape="681.37,601.40,8.09 681.36,601.69,8.10"/>
  </edge>
  <edge id=":19.18_0" function="internal">
    <lane id=":19.18_0_0" index="0" disallow="pedestrian tram rail_urban rail rail_electric rail_fast ship" speed="8.33" length="0.29" width="3.75" shape="569.64,641.45,10.97 569.75,641.18,10.94"/>
  </edge>
  <edge id=":2_0" function="internal">
    <lane id=":2_0_0" index="0" disallow="pedestrian tram rail_urban rail rail_electric rail_fast ship" speed="15.28" length="29.53" width="3.75" shape="480.91,671.29,20.00 487.74,678.68,20.00 493.98,684.12,20.00 499.34,687.80,20.00 503.50,689.95,20.00"/>
  </edge>
  <edge id=":2_1" function="internal">
    <lane id=":2_1_0" index="0" disallow="pedestrian tram rail_urban rail rail_electric rail_fast ship" speed="22.22" length="30.00" width="3.75" shape="480.91,671.29,20.00 500.24,694.15,20.00"/>
    <lane id=":2_1_1" index="1" disallow="pedestrian tram rail_urban rail rail_electric rail_fast ship" speed="22.22" length="30.00" width="3.75" shape="478.02,673.68,20.00 497.40,696.59,20.00"/>
    <lane id=":2_1_2" index="2" disallow="pedestrian tram rail_urban rail rail_electric rail_fast ship" speed="22.22" length="30.00" width="3.75" shape="475.14,676.08,20.00 494.55,699.03,20.00"/>
  </edge>
  <edge id=":2.1_0" function="internal">
    <lane id=":2.1_0_0" index="0" disallow="pedestrian tram rail_urban rail rail_electric rail_fast ship" speed="22.22" length="0.30" width="3.75" shape="585.25,520.31 585.01,520.48"/>
    <lane id=":2.1_0_1" index="1" disallow="pedestrian tram rail_urban rail rail_electric rail_fast ship" speed="22.22" length="0.30" width="3.75" shape="583.05,517.27 582.80,517.45"/>
    <lane id=":2.1_0_2" index="2" disallow="pedestrian tram rail_urban rail rail_electric rail_fast ship" speed="22.22" length="0.30" width="3.75" shape="580.84,514.24 580.59,514.42"/>
  </edge>
  <edge id=":21.20_0" function="internal">
    <lane id=":21.20_0_0" index="0" disallow="pedestrian tram rail_urban rail rail_electric rail_fast ship" speed="11.11" length="0.30" width="3.75" shape="182.44,565.68,9.03 182.44,565.39,9.04"/>
  </edge>
  <edge id=":23.22_0" function="internal">
    <lane id=":23.22_0_0" index="0" disallow="pedestrian tram rail_urban rail rail_electric rail_fast ship" speed="19.44" length="0.30" width="3.75" shape="496.71,581.58,9.63 496.75,581.28,9.62"/>
  </edge>
  <edge id=":3_0" function="internal">
    <lane id=":3_0_0" index="0" disallow="pedestrian tram rail_urban rail rail_electric rail_fast ship" speed="20.83" length="139.52" width="3.75" shape="823.13,1078.04,20.00 724.42,979.45,20.00"/>
  </edge>
  <edge id=":3_1" function="internal">
    <lane id=":3_1_0" index="0" disallow="pedestrian tram rail_urban rail rail_electric rail_fast ship" speed="22.22" length="139.59" width="3.75" shape="823.13,1078.04,20.00 727.19,976.62,20.00"/>
    <lane id=":3_1_1" index="1" disallow="pedestrian tram rail_urban rail rail_electric rail_fast ship" speed="22.22" length="139.59" width="3.75" shape="825.85,1075.45,20.00 729.92,974.05,20.00"/>
    <lane id=":3_1_2" index="2" disallow="pedestrian tram rail_urban rail rail_electric rail_fast ship" speed="22.22" length="139.59" width="3.75" shape="828.57,1072.87,20.00 732.65,971.48,20.00"/>
  </edge>
  <edge id=":4_0" function="internal">
    <lane id=":4_0_0" index="0" disallow="pedestrian tram rail_urban rail rail_electric rail_fast ship" speed="15.28" length="106.34" width="3.75" shape="884.71,1103.82,20.00 955.15,1183.49,20.00"/>
  </edge>
  <edge id=":4_1" function="internal">
    <lane id=":4_1_0" index="0" disallow="pedestrian tram rail_urban rail rail_electric rail_fast ship" speed="22.22" length="106.13" width="3.75" shape="881.85,1106.74,20.00 955.15,1183.49,20.00"/>
    <lane id=":4_1_1" index="1" disallow="pedestrian tram rail_urban rail rail_electric rail_fast ship" speed="22.22" length="106.13" width="3.75" shape="879.14,1109.33,20.00 952.44,1186.08,20.00"/>
    <lane id=":4_1_2" index="2" disallow="pedestrian tram rail_urban rail rail_electric rail_fast ship" speed="22.22" length="106.13" width="3.75" shape="876.42,1111.92,20.00 949.73,1188.67,20.00"/>
  </edge>
  <edge id=":5_0" function="internal">
    <lane id=":5_0_0" index="0" disallow="pedestrian tram rail_urban rail rail_electric rail_fast ship" speed="15.28" length="32.92" width="3.75" shape="559.08,547.34,0.00 554.11,548.68,0.00 547.12,551.61,0.00 538.84,556.15,0.00 530.02,562.30"/>
  </edge>
  <edge id=":5_1" function="internal">
    <lane id=":5_1_0" index="0" disallow="pedestrian tram rail_urban rail rail_electric rail_fast ship" speed="22.22" length="31.78" width="3.75" shape="555.09,542.85 530.02,562.30"/>
    <lane id=":5_1_1" index="1" disallow="pedestrian tram rail_urban rail rail_electric rail_fast ship" speed="22.22" length="31.78" width="3.75" shape="552.81,539.87 527.70,559.35"/>
    <lane id=":5_1_2" index="2" disallow="pedestrian tram rail_urban rail rail_electric rail_fast ship" speed="22.22" length="31.78" width="3.75" shape="550.53,536.89 525.39,556.41"/>
  </edge>
  <edge id=":6_0" function="internal">
    <lane id=":6_0_0" index="0" disallow="pedestrian tram rail_urban rail rail_electric rail_fast ship" speed="16.67" length="43.99" width="3.75" shape="90.98,163.60,19.87 88.14,157.33,19.89 83.16,147.10,19.93 76.98,135.38,19.96 70.56,124.68,20.00"/>
  </edge>
  <edge id=":6_1" function="internal">
    <lane id=":6_1_0" index="0" disallow="pedestrian tram rail_urban rail rail_electric rail_fast ship" speed="22.22" length="43.45" width="3.75" shape="94.64,160.85,20.00 70.56,124.68,20.00"/>
    <lane id=":6_1_1" index="1" disallow="pedestrian tram rail_urban rail rail_electric rail_fast ship" speed="22.22" length="43.45" width="3.75" shape="97.76,158.77,20.00 73.68,122.60,20.00"/>
    <lane id=":6_1_2" index="2" disallow="pedestrian tram rail_urban rail rail_electric rail_fast ship" speed="22.22" length="43.45" width="3.75" shape="100.88,156.70,20.00 76.80,120.53,20.00"/>
  </edge>
  <edge id=":6.5_0" function="internal">
    <lane id=":6.5_0_0" index="0" disallow="pedestrian tram rail_urban rail rail_electric rail_fast ship" speed="22.22" length="0.30" width="3.75" shape="571.63,502.08 571.87,501.90"/>
    <lane id=":6.5_0_1" index="1" disallow="pedestrian tram rail_urban rail rail_electric rail_fast ship" speed="22.22" length="0.30" width="3.75" shape="573.83,505.12 574.08,504.94"/>
    <lane id=":6.5_0_2" index="2" disallow="pedestrian tram rail_urban rail rail_electric rail_fast ship" speed="22.22" length="0.30" width="3.75" shape="576.04,508.15 576.28,507.97"/>
  </edge>
  <edge id=":7_0" function="internal">
    <lane id=":7_0_0" index="0" disallow="pedestrian tram rail_urban rail rail_electric rail_fast ship" speed="20.83" length="29.74" width="3.75" shape="908.00,290.19,0.03 912.61,289.21,0.03 918.95,287.59,0.02 926.82,284.84,0.01 935.96,280.44"/>
  </edge>
  <edge id=":7_1" function="internal">
    <lane id=":7_1_0" index="0" disallow="pedestrian tram rail_urban rail rail_electric rail_fast ship" speed="22.22" length="28.86" width="3.75" shape="910.73,294.46 935.96,280.44"/>
    <lane id=":7_1_1" index="1" disallow="pedestrian tram rail_urban rail rail_electric rail_fast ship" speed="22.22" length="28.86" width="3.75" shape="912.55,297.73 937.78,283.72"/>
    <lane id=":7_1_2" index="2" disallow="pedestrian tram rail_urban rail rail_electric rail_fast ship" speed="22.22" length="28.86" width="3.75" shape="914.38,301.01 939.60,287.00"/>
  </edge>
  <edge id=":9.8_0" function="internal">
    <lane id=":9.8_0_0" index="0" disallow="pedestrian tram rail_urban rail rail_electric rail_fast ship" speed="22.22" length="0.30" width="3.75" shape="467.80,655.32,20.00 467.99,655.55,20.00"/>
    <lane id=":9.8_0_1" index="1" disallow="pedestrian tram rail_urban rail rail_electric rail_fast ship" speed="22.22" length="0.30" width="3.75" shape="464.88,657.67,20.00 465.07,657.91,20.00"/>
    <lane id=":9.8_0_2" index="2" disallow="pedestrian tram rail_urban rail rail_electric rail_fast ship" speed="22.22" length="0.30" width="3.75" shape="461.96,660.03,20.00 462.15,660.27,20.00"/>
  </edge>
  <edge id="-0" from="0.begin" to="0" priority="1" type="driving" shape="1102.73,202.87 1101.61,203.54 1100.48,204.21 1099.32,204.89 1098.14,205.58 1096.94,206.28 1095.72,206.99 1094.48,207.71 1093.22,208.44 1091.94,209.17 1090.64,209.92 1089.32,210.68 1087.99,211.45 1086.63,212.22 1085.25,213.01 1083.86,213.80 1082.44,214.61 1081.01,215.42 1079.56,216.24 1078.09,217.07 1076.60,217.91 1075.10,218.76 1073.58,219.62 1072.04,220.49 1070.48,221.36 1068.90,222.25 1067.31,223.14 1065.70,224.04 1064.07,224.95 1062.43,225.87 1060.76,226.80 1059.09,227.73 1057.39,228.67 1055.68,229.63 1053.96,230.58 1052.21,231.55 1050.46,232.53 1048.68,233.51 1046.89,234.50 1045.09,235.50 1043.27,236.51 1041.43,237.53 1039.58,238.55 1037.71,239.58 1035.83,240.62 1033.94,241.67 1032.03,242.72 1030.11,243.78 1028.17,244.85 1026.22,245.93 1024.25,247.01 1022.27,248.10 1020.28,249.20 1018.27,250.30 1016.25,251.42 1014.22,252.53 1012.17,253.66 1010.12,254.79 1008.04,255.93 1005.96,257.08 1003.86,258.23 1001.76,259.40 999.63,260.56 997.50,261.74 995.36,262.92 993.20,264.10 991.03,265.30 988.85,266.50 986.66,267.70 984.46,268.91 982.25,270.13 980.02,271.36 977.79,272.59 975.54,273.83">
    <lane id="-0_0" index="0" disallow="pedestrian tram rail_urban rail rail_electric rail_fast ship" speed="22.22" length="141.81" width="3.75" shape="1107.50,210.94 1106.38,211.61 1105.23,212.29 1104.06,212.97 1102.87,213.67 1101.66,214.38 1100.43,215.09 1099.18,215.82 1097.91,216.55 1096.62,217.30 1095.32,218.05 1093.99,218.81 1092.64,219.58 1091.28,220.36 1089.90,221.15 1088.50,221.95 1087.08,222.76 1085.64,223.58 1084.18,224.40 1082.71,225.24 1081.21,226.08 1079.70,226.93 1078.17,227.79 1076.63,228.66 1075.07,229.54 1073.49,230.42 1071.89,231.32 1070.27,232.22 1068.64,233.13 1066.99,234.06 1065.33,234.98 1063.65,235.92 1061.95,236.87 1060.24,237.82 1058.51,238.78 1056.76,239.75 1055.00,240.73 1053.23,241.71 1051.44,242.70 1049.63,243.71 1047.81,244.71 1045.97,245.73 1044.12,246.76 1042.25,247.79 1040.37,248.83 1038.47,249.87 1036.56,250.93 1034.63,251.99 1032.70,253.06 1030.74,254.14 1028.78,255.22 1026.80,256.31 1024.80,257.41 1022.80,258.52 1020.77,259.63 1018.74,260.75 1016.70,261.87 1014.64,263.01 1012.56,264.15 1010.48,265.29 1008.38,266.45 1006.28,267.61 1004.15,268.78 1002.02,269.95 999.88,271.13 997.72,272.32 995.55,273.51 993.37,274.71 991.18,275.92 988.98,277.13 986.77,278.35 984.55,279.57 983.58,280.10" type="driving"/>
    <lane id="-0_1" index="1" disallow="pedestrian tram rail_urban rail rail_electric rail_fast ship" speed="22.22" length="141.81" width="3.75" shape="1105.60,207.72 1104.47,208.38 1103.33,209.05 1102.16,209.74 1100.98,210.43 1099.77,211.14 1098.55,211.85 1097.30,212.57 1096.04,213.31 1094.75,214.05 1093.45,214.80 1092.12,215.56 1090.78,216.33 1089.42,217.11 1088.04,217.90 1086.64,218.69 1085.22,219.50 1083.79,220.31 1082.33,221.14 1080.86,221.97 1079.37,222.81 1077.86,223.66 1076.34,224.52 1074.79,225.39 1073.23,226.27 1071.65,227.15 1070.06,228.05 1068.44,228.95 1066.81,229.86 1065.17,230.78 1063.50,231.71 1061.82,232.64 1060.13,233.59 1058.42,234.54 1056.69,235.50 1054.94,236.47 1053.18,237.45 1051.41,238.43 1049.62,239.42 1047.81,240.43 1045.99,241.43 1044.15,242.45 1042.30,243.47 1040.43,244.51 1038.55,245.54 1036.66,246.59 1034.75,247.65 1032.82,248.71 1030.88,249.78 1028.93,250.85 1026.97,251.94 1024.99,253.03 1022.99,254.13 1020.99,255.23 1018.97,256.34 1016.93,257.46 1014.89,258.59 1012.83,259.72 1010.76,260.86 1008.67,262.01 1006.58,263.16 1004.47,264.32 1002.35,265.49 1000.21,266.66 998.07,267.84 995.91,269.03 993.74,270.22 991.57,271.42 989.38,272.63 987.17,273.84 984.96,275.06 982.74,276.29 981.77,276.82" type="driving"/>
    <lane id="-0_2" index="2" disallow="pedestrian tram rail_urban rail rail_electric rail_fast ship" speed="22.22" length="141.81" width="3.75" shape="1103.69,204.49 1102.57,205.15 1101.43,205.82 1100.27,206.50 1099.08,207.20 1097.88,207.90 1096.66,208.61 1095.42,209.33 1094.16,210.06 1092.88,210.80 1091.58,211.55 1090.26,212.31 1088.92,213.07 1087.56,213.85 1086.18,214.64 1084.78,215.43 1083.37,216.24 1081.94,217.05 1080.48,217.87 1079.01,218.71 1077.53,219.55 1076.02,220.40 1074.50,221.26 1072.95,222.12 1071.39,223.00 1069.82,223.88 1068.22,224.78 1066.61,225.68 1064.98,226.59 1063.34,227.51 1061.68,228.43 1060.00,229.37 1058.31,230.31 1056.59,231.26 1054.87,232.22 1053.12,233.19 1051.37,234.17 1049.59,235.15 1047.80,236.14 1045.99,237.14 1044.17,238.15 1042.34,239.17 1040.49,240.19 1038.62,241.22 1036.74,242.26 1034.85,243.31 1032.94,244.36 1031.01,245.42 1029.07,246.49 1027.12,247.57 1025.16,248.65 1023.18,249.74 1021.18,250.84 1019.18,251.95 1017.16,253.06 1015.12,254.18 1013.08,255.30 1011.02,256.44 1008.95,257.58 1006.86,258.72 1004.77,259.88 1002.66,261.04 1000.54,262.21 998.41,263.38 996.26,264.56 994.10,265.75 991.94,266.94 989.76,268.14 987.57,269.35 985.36,270.56 983.15,271.78 980.93,273.00 979.96,273.53" type="driving"/>
  </edge>
  <edge id="-1" from="0" to="2.1" priority="1" type="driving" shape="975.54,273.83 973.99,274.68 972.43,275.54 970.86,276.41 969.29,277.27 967.72,278.14 966.14,279.01 964.55,279.89 962.96,280.76 961.37,281.64 959.77,282.53 958.17,283.41 956.56,284.30 954.95,285.19 953.33,286.08 951.71,286.98 950.09,287.88 948.46,288.78 946.83,289.68 945.19,290.59 943.55,291.50 941.90,292.41 940.25,293.32 938.60,294.24 936.94,295.16 935.28,296.08 933.62,297.00 931.95,297.93 930.28,298.86 928.60,299.79 926.92,300.72 925.24,301.66 923.55,302.59 921.86,303.53 920.17,304.48 918.47,305.42 916.77,306.37 915.07,307.32 913.36,308.27 911.65,309.22 909.94,310.18 908.22,311.14 906.50,312.10 904.78,313.06 903.06,314.02 901.33,314.99 899.60,315.96 897.87,316.93 896.13,317.90 894.39,318.87 892.65,319.85 890.90,320.83 889.16,321.81 887.41,322.79 885.66,323.78 883.90,324.76 882.15,325.75 880.39,326.74 878.63,327.73 876.86,328.73 875.10,329.72 873.33,330.72 871.56,331.72 869.79,332.72 868.01,333.72 866.24,334.73 864.46,335.73 862.68,336.74 860.90,337.75 859.12,338.76 857.33,339.77 855.55,340.79 853.76,341.81 851.97,342.82 850.18,343.84 848.38,344.86 846.59,345.89 844.80,346.91 843.00,347.93 841.20,348.96 839.40,349.99 837.60,351.02 835.80,352.05 834.00,353.08 832.19,354.12 830.39,355.15 828.58,356.19 826.78,357.23 824.97,358.27 823.16,359.31 821.35,360.35 819.54,361.39 817.73,362.44 815.92,363.49 814.11,364.53 812.29,365.58 810.48,366.63 808.67,367.68 806.86,368.73 805.04,369.79 803.23,370.84 801.41,371.89 799.60,372.95 797.78,374.01 795.97,375.07 794.15,376.13 792.34,377.19 790.52,378.25 788.71,379.31 786.89,380.37 785.08,381.44 783.26,382.50 781.45,383.57 779.64,384.64 777.82,385.70 776.01,386.77 774.20,387.84 772.38,388.91 770.57,389.98 768.76,391.06 766.95,392.13 765.14,393.20 763.33,394.28 761.53,395.35 759.72,396.43 757.91,397.50 756.11,398.58 754.30,399.66 752.50,400.74 750.70,401.81 748.89,402.89 747.09,403.97 745.30,405.05 743.50,406.13 741.70,407.22 739.91,408.30 738.11,409.38 736.32,410.46 734.53,411.55 732.74,412.63 730.95,413.71 729.17,414.80 727.38,415.88 725.60,416.97 723.82,418.05 722.04,419.14 720.26,420.23 718.49,421.31 716.72,422.40 714.94,423.49 713.18,424.57 711.41,425.66 709.64,426.75 707.88,427.84 706.12,428.93 704.36,430.01 702.61,431.10 700.85,432.19 699.10,433.28 697.35,434.37 695.61,435.46 693.87,436.54 692.12,437.63 690.39,438.72 688.65,439.81 686.92,440.90 685.19,441.99 683.46,443.08 681.74,444.16 680.02,445.25 678.30,446.34 676.58,447.43 674.87,448.52 673.16,449.60 671.46,450.69 669.76,451.78 668.06,452.86 666.36,453.95 664.67,455.04 662.98,456.12 661.30,457.21 659.61,458.30 657.94,459.38 656.26,460.47 654.59,461.55 652.92,462.63 651.26,463.72 649.60,464.80 647.94,465.88 646.29,466.97 644.64,468.05 643.00,469.13 641.36,470.21 639.72,471.29 638.09,472.37 636.46,473.45 634.84,474.53 633.22,475.60 631.61,476.68 630.00,477.76 628.39,478.83 626.79,479.91 625.19,480.98 623.60,482.06 622.01,483.13 620.43,484.20 618.85,485.28 617.28,486.35 615.71,487.42 614.14,488.49 612.58,489.55 611.03,490.62 609.48,491.69 607.94,492.75 606.40,493.82 604.86,494.88 603.34,495.95 601.81,497.01 600.29,498.07 598.78,499.13 597.27,500.19 595.77,501.25 594.27,502.30 592.78,503.36 591.30,504.41 589.82,505.47 588.34,506.52 586.87,507.57 585.41,508.62 583.95,509.67 582.50,510.72 581.06,511.77 579.62,512.81">
    <lane id="-1_0" index="0" disallow="pedestrian tram rail_urban rail rail_electric rail_fast ship" speed="22.22" length="404.92" width="3.75" shape="930.24,309.60 929.79,309.85 928.11,310.79 926.42,311.73 924.73,312.67 923.03,313.61 921.33,314.56 919.63,315.51 917.93,316.46 916.22,317.41 914.51,318.36 912.79,319.32 911.08,320.28 909.36,321.24 907.63,322.20 905.91,323.17 904.18,324.14 902.45,325.11 900.71,326.08 898.97,327.05 897.23,328.03 895.49,329.00 893.75,329.98 892.00,330.97 890.25,331.95 888.50,332.93 886.74,333.92 884.99,334.91 883.23,335.90 881.47,336.89 879.70,337.89 877.94,338.88 876.17,339.88 874.40,340.88 872.63,341.88 870.86,342.89 869.08,343.89 867.30,344.90 865.52,345.91 863.74,346.92 861.96,347.93 860.18,348.94 858.39,349.96 856.60,350.97 854.82,351.99 853.03,353.01 851.23,354.03 849.44,355.05 847.65,356.08 845.85,357.10 844.05,358.13 842.26,359.16 840.46,360.19 838.66,361.22 836.86,362.25 835.05,363.28 833.25,364.32 831.45,365.36 829.64,366.39 827.84,367.43 826.03,368.47 824.22,369.52 822.42,370.56 820.61,371.60 818.80,372.65 816.99,373.69 815.18,374.74 813.37,375.79 811.56,376.84 809.75,377.89 807.94,378.94 806.13,380.00 804.32,381.05 802.50,382.11 800.69,383.16 798.88,384.22 797.07,385.28 795.26,386.34 793.45,387.40 791.63,388.46 789.82,389.52 788.01,390.59 786.20,391.65 784.39,392.72 782.58,393.78 780.77,394.85 778.96,395.92 777.15,396.98 775.35,398.05 773.54,399.12 771.73,400.19 769.93,401.26 768.12,402.34 766.32,403.41 764.51,404.48 762.71,405.56 760.91,406.63 759.11,407.71 757.31,408.78 755.51,409.86 753.71,410.93 751.92,412.01 750.12,413.09 748.33,414.17 746.54,415.25 744.75,416.33 742.96,417.41 741.17,418.49 739.38,419.57 737.60,420.65 735.82,421.73 734.04,422.81 732.26,423.89 730.48,424.98 728.70,426.06 726.93,427.14 725.16,428.22 723.39,429.31 721.62,430.39 719.85,431.48 718.09,432.56 716.32,433.64 714.57,434.73 712.81,435.81 711.05,436.90 709.30,437.98 707.55,439.07 705.80,440.15 704.06,441.24 702.31,442.32 700.57,443.41 698.83,444.49 697.10,445.58 695.37,446.66 693.64,447.75 691.91,448.83 690.19,449.92 688.46,451.00 686.75,452.09 685.03,453.17 683.32,454.26 681.61,455.34 679.90,456.43 678.20,457.51 676.50,458.59 674.81,459.68 673.11,460.76 671.42,461.84 669.74,462.92 668.06,464.01 666.38,465.09 664.70,466.17 663.03,467.25 661.36,468.33 659.70,469.41 658.04,470.49 656.38,471.57 654.73,472.65 653.08,473.73 651.43,474.81 649.79,475.88 648.15,476.96 646.52,478.03 644.89,479.11 643.27,480.19 641.65,481.26 640.03,482.33 638.42,483.41 636.81,484.48 635.21,485.55 633.61,486.62 632.02,487.69 630.43,488.76 628.85,489.83 627.27,490.90 625.69,491.96 624.12,493.03 622.56,494.09 620.99,495.16 619.44,496.22 617.89,497.29 616.34,498.35 614.80,499.41 613.27,500.47 611.74,501.53 610.21,502.58 608.69,503.64 607.18,504.70 605.67,505.75 604.16,506.80 602.67,507.86 601.17,508.91 599.69,509.96 598.20,511.01 596.73,512.06 595.26,513.10 593.79,514.15 592.33,515.19 590.88,516.23 589.43,517.28 587.99,518.32 586.56,519.36 585.25,520.31" type="driving"/>
    <lane id="-1_1" index="1" disallow="pedestrian tram rail_urban rail rail_electric rail_fast ship" speed="22.22" length="404.92" width="3.75" shape="928.41,306.33 927.97,306.57 926.28,307.51 924.60,308.45 922.90,309.39 921.21,310.34 919.51,311.28 917.81,312.23 916.10,313.18 914.39,314.13 912.68,315.09 910.96,316.05 909.25,317.01 907.53,317.97 905.80,318.93 904.08,319.90 902.35,320.86 900.61,321.83 898.88,322.81 897.14,323.78 895.40,324.76 893.66,325.73 891.91,326.71 890.16,327.70 888.41,328.68 886.66,329.67 884.90,330.65 883.15,331.64 881.39,332.63 879.63,333.63 877.86,334.62 876.09,335.62 874.33,336.62 872.56,337.62 870.78,338.62 869.01,339.62 867.23,340.63 865.45,341.63 863.67,342.64 861.89,343.65 860.11,344.67 858.32,345.68 856.54,346.70 854.75,347.71 852.96,348.73 851.17,349.75 849.38,350.77 847.58,351.80 845.79,352.82 843.99,353.85 842.19,354.87 840.39,355.90 838.59,356.93 836.79,357.96 834.99,359.00 833.19,360.03 831.38,361.07 829.58,362.11 827.77,363.14 825.97,364.18 824.16,365.22 822.35,366.27 820.54,367.31 818.73,368.36 816.92,369.40 815.11,370.45 813.30,371.50 811.49,372.55 809.68,373.60 807.87,374.65 806.05,375.70 804.24,376.76 802.43,377.81 800.62,378.87 798.80,379.93 796.99,380.98 795.18,382.04 793.36,383.10 791.55,384.16 789.74,385.23 787.93,386.29 786.11,387.35 784.30,388.42 782.49,389.48 780.68,390.55 778.87,391.62 777.06,392.69 775.25,393.76 773.44,394.83 771.63,395.90 769.82,396.97 768.01,398.04 766.21,399.11 764.40,400.19 762.60,401.26 760.79,402.33 758.99,403.41 757.19,404.49 755.39,405.56 753.59,406.64 751.79,407.72 749.99,408.80 748.19,409.87 746.40,410.95 744.60,412.03 742.81,413.11 741.02,414.20 739.23,415.28 737.44,416.36 735.66,417.44 733.87,418.52 732.09,419.61 730.31,420.69 728.53,421.77 726.75,422.86 724.97,423.94 723.20,425.03 721.43,426.11 719.66,427.20 717.89,428.28 716.12,429.37 714.36,430.45 712.60,431.54 710.84,432.62 709.08,433.71 707.32,434.80 705.57,435.88 703.82,436.97 702.07,438.05 700.33,439.14 698.59,440.23 696.85,441.31 695.11,442.40 693.37,443.49 691.64,444.57 689.91,445.66 688.19,446.75 686.46,447.83 684.74,448.92 683.03,450.01 681.31,451.09 679.60,452.18 677.89,453.26 676.19,454.35 674.48,455.43 672.79,456.52 671.09,457.60 669.40,458.69 667.71,459.77 666.03,460.85 664.34,461.94 662.67,463.02 660.99,464.10 659.32,465.18 657.65,466.27 655.99,467.35 654.33,468.43 652.68,469.51 651.02,470.59 649.38,471.67 647.73,472.75 646.09,473.83 644.46,474.90 642.83,475.98 641.20,477.06 639.57,478.14 637.96,479.21 636.34,480.29 634.73,481.36 633.13,482.43 631.52,483.51 629.93,484.58 628.34,485.65 626.75,486.72 625.16,487.79 623.59,488.86 622.01,489.93 620.44,491.00 618.88,492.06 617.32,493.13 615.77,494.19 614.22,495.26 612.67,496.32 611.13,497.38 609.60,498.44 608.07,499.50 606.55,500.56 605.03,501.62 603.52,502.68 602.01,503.73 600.51,504.79 599.01,505.84 597.52,506.90 596.04,507.95 594.56,509.00 593.08,510.05 591.61,511.10 590.15,512.14 588.69,513.19 587.24,514.23 585.80,515.28 584.36,516.32 583.05,517.27" type="driving"/>