<?xml version='1.0' encoding='UTF-8'?>
<!-- generated on 2022-09-25 13:27:28 by Eclipse SUMO netconvert Version 1.13.0
<configuration xmlns:xsi="http://www.w3.org/2001/XMLSchema-instance" xsi:noNamespaceSchemaLocation="http://sumo.dlr.de/xsd/netconvertConfiguration.xsd">

    <input>
        <opendrive-files value="map_new_new\19\34\34.xodr"/>
    </input>

    <output>
        <output-file value="C:\Users\LinGe\AppData\Local\Temp\tmplu_sc3z4\34.net.xml"/>
    </output>

    <processing>
        <geometry.max-grade.fix value="false"/>
    </processing>

    <tls_building>
        <tls.left-green.time value="0"/>
    </tls_building>

    <junctions>
        <rectangular-lane-cut value="true"/>
    </junctions>

    <report>
        <aggregate-warnings value="5"/>
    </report>

</configuration>
-->
<net xmlns:xsi="http://www.w3.org/2001/XMLSchema-instance" version="1.9" junctionCornerDetail="5" rectangularLaneCut="true" limitTurnSpeed="5.50" xsi:noNamespaceSchemaLocation="http://sumo.dlr.de/xsd/net_file.xsd">
  <location netOffset="1.56,101.26" convBoundary="0.00,0.00,1102.73,1302.51" origBoundary="-1.56,-101.26,1101.18,1201.26" projParameter="!"/>
  <type id="bidirectional" priority="1" speed="1.39" disallow="pedestrian tram rail_urban rail rail_electric rail_fast ship" width="3.65"/>
  <type id="border" priority="0" speed="1.39" disallow="all" discard="1" width="0.10"/>
  <type id="driving" priority="1" speed="13.89" disallow="pedestrian tram rail_urban rail rail_electric rail_fast ship" width="3.65"/>
  <type id="entry" priority="1" speed="22.22" disallow="pedestrian tram rail_urban rail rail_electric rail_fast ship" width="3.65"/>
  <type id="exit" priority="1" speed="22.22" disallow="pedestrian tram rail_urban rail rail_electric rail_fast ship" width="3.65"/>
  <type id="median" priority="0" speed="1.39" disallow="all" discard="1" width="0.10"/>
  <type id="mwyEntry" priority="1" speed="22.22" allow="private emergency authority army vip passenger hov taxi bus coach delivery truck trailer motorcycle evehicle custom1 custom2" width="3.65"/>
  <type id="mwyExit" priority="1" speed="22.22" allow="private emergency authority army vip passenger hov taxi bus coach delivery truck trailer motorcycle evehicle custom1 custom2" width="3.65"/>
  <type id="none" priority="0" speed="1.39" disallow="all" discard="1" width="1.00"/>
  <type id="offRamp" priority="1" speed="22.22" allow="private emergency authority army vip passenger hov taxi bus coach delivery truck trailer motorcycle evehicle custom1 custom2" width="3.65"/>
  <type id="onRamp" priority="1" speed="22.22" allow="private emergency authority army vip passenger hov taxi bus coach delivery truck trailer motorcycle evehicle custom1 custom2" width="3.65"/>
  <type id="parking" priority="1" speed="1.39" disallow="pedestrian tram rail_urban rail rail_electric rail_fast ship" width="2.50"/>
  <type id="rail" priority="3" speed="33.33" allow="rail_urban rail rail_electric rail_fast" width="3.65"/>
  <type id="restricted" priority="0" speed="13.89" disallow="all" width="3.65"/>
  <type id="roadWorks" priority="0" speed="1.39" allow="authority" width="3.65"/>
  <type id="shoulder" priority="0" speed="1.39" disallow="all" discard="1" width="1.00"/>
  <type id="special1" priority="1" speed="22.22" allow="custom1" discard="1" width="3.65"/>
  <type id="special2" priority="1" speed="22.22" allow="custom2" discard="1" width="3.65"/>
  <type id="special3" priority="1" speed="22.22" allow="custom1 custom2" discard="1" width="3.65"/>
  <type id="stop" priority="1" speed="13.89" disallow="pedestrian tram rail_urban rail rail_electric rail_fast ship" width="3.65"/>
  <type id="tram" priority="2" speed="13.89" allow="tram" width="3.65"/>
  <edge id=":0_0" function="internal">
    <lane id=":0_0_0" index="0" disallow="pedestrian tram rail_urban rail rail_electric rail_fast ship" speed="20.83" length="32.01" width="3.75" shape="956.97,349.23 949.55,356.79,0.01 943.78,363.85,0.02 939.60,369.80,0.03 936.91,374.05,0.04"/>
  </edge>
  <edge id=":0_1" function="internal">
    <lane id=":0_1_0" index="0" disallow="pedestrian tram rail_urban rail rail_electric rail_fast ship" speed="22.22" length="32.22" width="3.75" shape="956.97,349.23 933.22,371.01"/>
    <lane id=":0_1_1" index="1" disallow="pedestrian tram rail_urban rail rail_electric rail_fast ship" speed="22.22" length="32.22" width="3.75" shape="954.43,346.47 930.69,368.24"/>
    <lane id=":0_1_2" index="2" disallow="pedestrian tram rail_urban rail rail_electric rail_fast ship" speed="22.22" length="32.22" width="3.75" shape="951.90,343.71 928.15,365.48"/>
  </edge>
  <edge id=":1_0" function="internal">
    <lane id=":1_0_0" index="0" disallow="pedestrian tram rail_urban rail rail_electric rail_fast ship" speed="19.44" length="74.59" width="3.75" shape="166.72,152.74,20.00 179.23,164.65,20.00 196.79,180.67,20.00 213.11,195.26,20.00 221.90,202.91,20.00"/>
  </edge>
  <edge id=":1_1" function="internal">
    <lane id=":1_1_0" index="0" disallow="pedestrian tram rail_urban rail rail_electric rail_fast ship" speed="22.22" length="74.75" width="3.75" shape="166.72,152.74,20.00 219.09,206.09,20.00"/>
    <lane id=":1_1_1" index="1" disallow="pedestrian tram rail_urban rail rail_electric rail_fast ship" speed="22.22" length="74.75" width="3.75" shape="164.05,155.37,20.00 216.41,208.71,20.00"/>
    <lane id=":1_1_2" index="2" disallow="pedestrian tram rail_urban rail rail_electric rail_fast ship" speed="22.22" length="74.75" width="3.75" shape="161.38,158.00,20.00 213.73,211.33,20.00"/>
  </edge>
  <edge id=":13.12_0" function="internal">
    <lane id=":13.12_0_0" index="0" disallow="pedestrian tram rail_urban rail rail_electric rail_fast ship" speed="16.67" length="0.30" width="3.75" shape="641.28,338.09,8.65 641.58,338.13,8.64"/>
  </edge>
  <edge id=":15.14_0" function="internal">
    <lane id=":15.14_0_0" index="0" disallow="pedestrian tram rail_urban rail rail_electric rail_fast ship" speed="19.44" length="0.30" width="3.75" shape="553.53,677.48,9.96 553.23,677.44,9.97"/>
  </edge>
  <edge id=":2_0" function="internal">
    <lane id=":2_0_0" index="0" disallow="pedestrian tram rail_urban rail rail_electric rail_fast ship" speed="19.44" length="32.86" width="3.75" shape="997.37,274.26,0.07 1001.96,271.90,0.06 1008.51,268.11,0.04 1016.28,262.82,0.02 1024.55,255.99"/>
  </edge>
  <edge id=":2_1" function="internal">
    <lane id=":2_1_0" index="0" disallow="pedestrian tram rail_urban rail rail_electric rail_fast ship" speed="22.22" length="32.04" width="3.75" shape="1001.01,277.73 1024.55,255.99"/>
    <lane id=":2_1_1" index="1" disallow="pedestrian tram rail_urban rail rail_electric rail_fast ship" speed="22.22" length="32.04" width="3.75" shape="1003.56,280.48 1027.10,258.74"/>
    <lane id=":2_1_2" index="2" disallow="pedestrian tram rail_urban rail rail_electric rail_fast ship" speed="22.22" length="32.04" width="3.75" shape="1006.10,283.24 1029.64,261.50"/>
  </edge>
  <edge id=":2.1_0" function="internal">
    <lane id=":2.1_0_0" index="0" disallow="pedestrian tram rail_urban rail rail_electric rail_fast ship" speed="22.22" length="0.30" width="3.75" shape="607.15,648.75 606.90,648.93"/>
    <lane id=":2.1_0_1" index="1" disallow="pedestrian tram rail_urban rail rail_electric rail_fast ship" speed="22.22" length="0.30" width="3.75" shape="604.94,645.72 604.70,645.90"/>
    <lane id=":2.1_0_2" index="2" disallow="pedestrian tram rail_urban rail rail_electric rail_fast ship" speed="22.22" length="0.30" width="3.75" shape="602.73,642.69 602.49,642.86"/>
  </edge>
  <edge id=":3_0" function="internal">
    <lane id=":3_0_0" index="0" disallow="pedestrian tram rail_urban rail rail_electric rail_fast ship" speed="20.83" length="27.26" width="3.75" shape="249.73,278.15,19.97 248.01,273.98,19.98 245.33,268.61,19.98 241.24,262.28,19.99 235.26,255.26,20.00"/>
  </edge>
  <edge id=":3_1" function="internal">
    <lane id=":3_1_0" index="0" disallow="pedestrian tram rail_urban rail rail_electric rail_fast ship" speed="22.22" length="26.17" width="3.75" shape="253.46,274.06,20.00 235.26,255.26,20.00"/>
    <lane id=":3_1_1" index="1" disallow="pedestrian tram rail_urban rail rail_electric rail_fast ship" speed="22.22" length="26.17" width="3.75" shape="256.16,271.45,20.00 237.95,252.65,20.00"/>
    <lane id=":3_1_2" index="2" disallow="pedestrian tram rail_urban rail rail_electric rail_fast ship" speed="22.22" length="26.17" width="3.75" shape="258.86,268.85,20.00 240.64,250.04,20.00"/>
  </edge>
  <edge id=":4.3_0" function="internal">
    <lane id=":4.3_0_0" index="0" disallow="pedestrian tram rail_urban rail rail_electric rail_fast ship" speed="22.22" length="0.30" width="3.75" shape="593.52,630.53 593.76,630.35"/>
    <lane id=":4.3_0_1" index="1" disallow="pedestrian tram rail_urban rail rail_electric rail_fast ship" speed="22.22" length="0.30" width="3.75" shape="595.73,633.56 595.97,633.39"/>
    <lane id=":4.3_0_2" index="2" disallow="pedestrian tram rail_urban rail rail_electric rail_fast ship" speed="22.22" length="0.30" width="3.75" shape="597.93,636.60 598.18,636.42"/>
  </edge>
  <edge id=":8.7_0" function="internal">
    <lane id=":8.7_0_0" index="0" disallow="pedestrian tram rail_urban rail rail_electric rail_fast ship" speed="22.22" length="0.30" width="3.75" shape="498.32,508.97,20.00 498.51,509.21,20.00"/>
    <lane id=":8.7_0_1" index="1" disallow="pedestrian tram rail_urban rail rail_electric rail_fast ship" speed="22.22" length="0.30" width="3.75" shape="495.40,511.33,20.00 495.59,511.56,20.00"/>
    <lane id=":8.7_0_2" index="2" disallow="pedestrian tram rail_urban rail rail_electric rail_fast ship" speed="22.22" length="0.30" width="3.75" shape="492.49,513.69,20.00 492.67,513.92,20.00"/>
  </edge>
  <edge id=":9.10_0" function="internal">
    <lane id=":9.10_0_0" index="0" disallow="pedestrian tram rail_urban rail rail_electric rail_fast ship" speed="22.22" length="0.30" width="3.75" shape="480.81,523.50,20.00 480.62,523.27,20.00"/>
    <lane id=":9.10_0_1" index="1" disallow="pedestrian tram rail_urban rail rail_electric rail_fast ship" speed="22.22" length="0.30" width="3.75" shape="483.73,521.14,20.00 483.54,520.91,20.00"/>
    <lane id=":9.10_0_2" index="2" disallow="pedestrian tram rail_urban rail rail_electric rail_fast ship" speed="22.22" length="0.30" width="3.75" shape="486.65,518.79,20.00 486.46,518.55,20.00"/>
  </edge>
  <edge id="-0" from="0.begin" to="0" priority="1" type="driving" shape="1102.73,202.87 1101.90,203.60 1101.06,204.34 1100.20,205.10 1099.32,205.87 1098.43,206.66 1097.53,207.46 1096.61,208.28 1095.67,209.11 1094.72,209.95 1093.76,210.81 1092.79,211.68 1091.79,212.57 1090.79,213.47 1089.77,214.39 1088.74,215.32 1087.69,216.26 1086.63,217.21 1085.56,218.18 1084.47,219.16 1083.37,220.16 1082.26,221.17 1081.13,222.19 1079.99,223.23 1078.83,224.27 1077.67,225.34 1076.49,226.41 1075.30,227.50 1074.09,228.59 1072.87,229.70 1071.64,230.83 1070.40,231.96 1069.14,233.11 1067.88,234.27 1066.60,235.44 1065.30,236.63 1064.00,237.82 1062.68,239.03 1061.35,240.25 1060.01,241.48 1058.66,242.72 1057.30,243.97 1055.92,245.23 1054.54,246.51 1053.14,247.80 1051.73,249.09 1050.31,250.40 1048.88,251.72 1047.43,253.05 1045.98,254.39 1044.51,255.74 1043.04,257.10 1041.55,258.47 1040.05,259.85 1038.55,261.24 1037.03,262.64 1035.50,264.05 1033.96,265.47 1032.41,266.90 1030.85,268.34 1029.28,269.79 1027.70,271.25 1026.11,272.71 1024.51,274.19 1022.91,275.68 1021.29,277.17 1019.66,278.67 1018.02,280.19 1016.38,281.71 1014.72,283.24 1013.05,284.78 1011.38,286.32 1009.70,287.88 1008.00,289.44 1006.30,291.01 1004.59,292.59 1002.87,294.18 1001.14,295.78 999.41,297.38 997.66,298.99 995.91,300.61 994.15,302.24 992.38,303.87 990.60,305.51 988.82,307.16 987.02,308.81 985.22,310.48 983.41,312.14 981.60,313.82 979.77,315.50 977.94,317.19 976.10,318.89 974.25,320.59 972.40,322.30 970.54,324.01 968.67,325.73 966.79,327.46 964.91,329.19 963.02,330.93 961.13,332.68 959.22,334.43 957.32,336.18 955.40,337.94 953.48,339.71 951.55,341.48 949.61,343.26 947.67,345.04">
    <lane id="-0_0" index="0" disallow="pedestrian tram rail_urban rail rail_electric rail_fast ship" speed="22.22" length="206.23" width="3.75" shape="1108.91,209.93 1108.08,210.65 1107.25,211.39 1106.39,212.14 1105.53,212.90 1104.64,213.68 1103.75,214.48 1102.83,215.29 1101.91,216.11 1100.96,216.95 1100.01,217.80 1099.04,218.67 1098.05,219.55 1097.05,220.45 1096.04,221.36 1095.01,222.28 1093.97,223.22 1092.91,224.17 1091.84,225.14 1090.76,226.12 1089.66,227.11 1088.55,228.12 1087.43,229.14 1086.29,230.17 1085.14,231.21 1083.98,232.27 1082.80,233.34 1081.61,234.43 1080.41,235.52 1079.19,236.63 1077.96,237.75 1076.72,238.88 1075.47,240.03 1074.20,241.19 1072.93,242.36 1071.64,243.54 1070.33,244.73 1069.02,245.94 1067.69,247.15 1066.35,248.38 1065.00,249.62 1063.64,250.87 1062.27,252.14 1060.88,253.41 1059.48,254.70 1058.08,255.99 1056.66,257.30 1055.23,258.61 1053.78,259.94 1052.33,261.28 1050.87,262.63 1049.39,263.99 1047.91,265.36 1046.41,266.74 1044.90,268.13 1043.39,269.53 1041.86,270.94 1040.32,272.36 1038.77,273.79 1037.21,275.23 1035.64,276.68 1034.06,278.13 1032.47,279.60 1030.88,281.08 1029.27,282.56 1027.65,284.06 1026.02,285.56 1024.38,287.07 1022.74,288.59 1021.08,290.12 1019.42,291.66 1017.74,293.21 1016.06,294.77 1014.36,296.33 1012.66,297.90 1010.95,299.48 1009.23,301.07 1007.51,302.66 1005.77,304.27 1004.02,305.88 1002.27,307.50 1000.51,309.12 998.74,310.76 996.96,312.40 995.18,314.05 993.38,315.70 991.58,317.37 989.77,319.04 987.95,320.71 986.13,322.39 984.29,324.08 982.45,325.78 980.61,327.48 978.75,329.19 976.89,330.91 975.02,332.63 973.15,334.36 971.26,336.09 969.37,337.83 967.48,339.58 965.57,341.33 963.66,343.08 961.74,344.85 959.82,346.61 957.89,348.39 956.97,349.23" type="driving"/>
    <lane id="-0_1" index="1" disallow="pedestrian tram rail_urban rail rail_electric rail_fast ship" speed="22.22" length="206.23" width="3.75" shape="1106.44,207.11 1105.61,207.83 1104.77,208.57 1103.91,209.32 1103.04,210.09 1102.16,210.87 1101.26,211.67 1100.34,212.48 1099.41,213.31 1098.47,214.15 1097.51,215.01 1096.54,215.88 1095.55,216.76 1094.55,217.66 1093.53,218.57 1092.50,219.50 1091.46,220.44 1090.40,221.39 1089.33,222.36 1088.24,223.34 1087.15,224.33 1086.03,225.34 1084.91,226.36 1083.77,227.39 1082.62,228.44 1081.45,229.50 1080.28,230.57 1079.08,231.65 1077.88,232.75 1076.66,233.86 1075.44,234.98 1074.19,236.12 1072.94,237.26 1071.67,238.42 1070.39,239.59 1069.10,240.77 1067.80,241.97 1066.48,243.17 1065.16,244.39 1063.82,245.62 1062.47,246.86 1061.10,248.11 1059.73,249.38 1058.34,250.65 1056.95,251.94 1055.54,253.23 1054.12,254.54 1052.69,255.86 1051.24,257.18 1049.79,258.52 1048.33,259.87 1046.85,261.23 1045.36,262.60 1043.87,263.98 1042.36,265.37 1040.84,266.77 1039.31,268.18 1037.78,269.60 1036.23,271.03 1034.67,272.47 1033.10,273.92 1031.52,275.38 1029.93,276.85 1028.33,278.32 1026.72,279.81 1025.10,281.30 1023.48,282.81 1021.84,284.32 1020.19,285.84 1018.54,287.37 1016.87,288.91 1015.20,290.46 1013.51,292.01 1011.82,293.57 1010.12,295.15 1008.41,296.73 1006.69,298.31 1004.96,299.91 1003.23,301.51 1001.48,303.12 999.73,304.74 997.97,306.37 996.20,308.00 994.42,309.64 992.63,311.29 990.84,312.95 989.04,314.61 987.23,316.28 985.41,317.95 983.59,319.64 981.75,321.33 979.91,323.02 978.07,324.73 976.21,326.43 974.35,328.15 972.48,329.87 970.61,331.60 968.72,333.33 966.83,335.07 964.94,336.82 963.03,338.57 961.12,340.32 959.21,342.09 957.28,343.85 955.36,345.63 954.43,346.47" type="driving"/>
    <lane id="-0_2" index="2" disallow="pedestrian tram rail_urban rail rail_electric rail_fast ship" speed="22.22" length="206.23" width="3.75" shape="1103.97,204.28 1103.14,205.01 1102.29,205.75 1101.44,206.51 1100.56,207.28 1099.67,208.06 1098.77,208.86 1097.85,209.68 1096.92,210.51 1095.97,211.35 1095.01,212.21 1094.04,213.08 1093.05,213.97 1092.04,214.87 1091.02,215.78 1089.99,216.71 1088.95,217.65 1087.89,218.61 1086.82,219.57 1085.73,220.56 1084.63,221.55 1083.52,222.56 1082.39,223.58 1081.25,224.62 1080.10,225.66 1078.93,226.72 1077.75,227.80 1076.56,228.88 1075.35,229.98 1074.14,231.09 1072.91,232.21 1071.66,233.35 1070.41,234.49 1069.14,235.65 1067.86,236.83 1066.57,238.01 1065.27,239.20 1063.95,240.41 1062.62,241.63 1061.28,242.86 1059.93,244.10 1058.57,245.35 1057.19,246.61 1055.81,247.89 1054.41,249.18 1053.00,250.47 1051.58,251.78 1050.15,253.10 1048.70,254.43 1047.25,255.77 1045.78,257.11 1044.31,258.47 1042.82,259.85 1041.33,261.23 1039.82,262.62 1038.30,264.02 1036.77,265.43 1035.23,266.85 1033.68,268.28 1032.12,269.72 1030.55,271.16 1028.98,272.62 1027.39,274.09 1025.79,275.57 1024.18,277.05 1022.56,278.55 1020.93,280.05 1019.29,281.56 1017.65,283.09 1015.99,284.62 1014.33,286.15 1012.65,287.70 1010.97,289.26 1009.28,290.82 1007.57,292.39 1005.86,293.97 1004.14,295.56 1002.42,297.15 1000.68,298.76 998.94,300.37 997.18,301.99 995.42,303.61 993.65,305.25 991.87,306.89 990.09,308.54 988.30,310.19 986.49,311.85 984.68,313.52 982.87,315.20 981.04,316.88 979.21,318.57 977.37,320.27 975.52,321.97 973.67,323.68 971.81,325.39 969.94,327.11 968.06,328.84 966.18,330.57 964.29,332.31 962.40,334.06 960.49,335.81 958.58,337.56 956.67,339.32 954.75,341.09 952.82,342.86 951.90,343.71" type="driving"/>
  </edge>
  <edge id="-1" from="0" to="2.1" priority="1" type="driving" shape="947.67,345.04 946.24,346.36 944.80,347.68 943.35,349.01 941.91,350.34 940.46,351.67 939.00,353.00 937.55,354.33 936.09,355.67 934.63,357.01 933.16,358.35 931.69,359.70 930.22,361.04 928.75,362.39 927.27,363.74 925.79,365.10 924.31,366.45 922.82,367.81 921.33,369.17 919.84,370.53 918.35,371.90 916.85,373.26 915.35,374.63 913.85,376.00 912.35,377.37 910.84,378.75 909.33,380.12 907.82,381.50 906.31,382.88 904.79,384.26 903.27,385.64 901.75,387.02 900.23,388.41 898.71,389.79 897.18,391.18 895.65,392.57 894.12,393.96 892.58,395.36 891.05,396.75 889.51,398.14 887.97,399.54 886.43,400.94 884.89,402.34 883.34,403.74 881.79,405.14 880.24,406.54 878.69,407.94 877.14,409.35 875.59,410.75 874.03,412.16 872.47,413.56 870.91,414.97 869.35,416.38 867.79,417.79 866.22,419.20 864.66,420.61 863.09,422.02 861.52,423.43 859.95,424.84 858.38,426.25 856.81,427.67 855.24,429.08 853.66,430.50 852.09,431.91 850.51,433.32 848.93,434.74 847.35,436.16 845.77,437.57 844.19,438.99 842.61,440.40 841.02,441.82 839.44,443.23 837.85,444.65 836.27,446.07 834.68,447.48 833.09,448.90 831.50,450.31 829.91,451.73 828.32,453.14 826.73,454.56 825.14,455.97 823.55,457.39 821.96,458.80 820.36,460.22 818.77,461.63 817.18,463.04 815.58,464.46 813.99,465.87 812.39,467.28 810.80,468.69 809.20,470.10 807.60,471.51 806.01,472.92 804.41,474.32 802.81,475.73 801.22,477.14 799.62,478.54 798.02,479.95 796.43,481.35 794.83,482.75 793.23,484.15 791.64,485.55 790.04,486.95 788.44,488.35 786.85,489.75 785.25,491.14 783.66,492.54 782.06,493.93 780.47,495.32 778.87,496.71 777.28,498.10 775.68,499.49 774.09,500.87 772.50,502.26 770.90,503.64 769.31,505.02 767.72,506.40 766.13,507.78 764.54,509.16 762.95,510.53 761.36,511.90 759.78,513.27 758.19,514.64 756.60,516.01 755.02,517.37 753.43,518.74 751.85,520.10 750.27,521.46 748.69,522.81 747.11,524.17 745.53,525.52 743.95,526.87 742.37,528.22 740.80,529.56 739.22,530.90 737.65,532.25 736.08,533.58 734.51,534.92 732.94,536.25 731.37,537.58 729.80,538.91 728.24,540.24 726.67,541.56 725.11,542.88 723.55,544.20 721.99,545.51 720.43,546.83 718.88,548.14 717.33,549.44 715.77,550.75 714.22,552.05 712.67,553.34 711.13,554.64 709.58,555.93 708.04,557.22 706.50,558.50 704.96,559.78 703.42,561.06 701.89,562.34 700.35,563.61 698.82,564.88 697.29,566.15 695.77,567.41 694.24,568.67 692.72,569.92 691.20,571.17 689.68,572.42 688.17,573.67 686.65,574.91 685.14,576.14 683.64,577.38 682.13,578.61 680.63,579.83 679.13,581.05 677.63,582.27 676.13,583.49 674.64,584.70 673.15,585.90 671.66,587.11 670.18,588.30 668.70,589.50 667.22,590.69 665.74,591.88 664.27,593.06 662.80,594.23 661.33,595.41 659.87,596.58 658.40,597.74 656.95,598.90 655.49,600.06 654.04,601.21 652.59,602.35 651.14,603.50 649.70,604.63 648.26,605.77 646.83,606.90 645.39,608.02 643.96,609.14 642.54,610.25 641.12,611.36 639.70,612.47 638.28,613.56 636.87,614.66 635.46,615.75 634.06,616.83 632.65,617.91 631.26,618.99 629.86,620.06 628.47,621.12 627.09,622.18 625.70,623.23 624.33,624.28 622.95,625.32 621.58,626.36 620.21,627.39 618.85,628.42 617.49,629.44 616.14,630.46 614.79,631.47 613.44,632.47 612.10,633.47 610.76,634.47 609.42,635.45 608.09,636.44 606.77,637.41 605.45,638.38 604.13,639.35 602.82,640.31 601.51,641.26">
    <lane id="-1_0" index="0" disallow="pedestrian tram rail_urban rail rail_electric rail_fast ship" speed="22.22" length="428.09" width="3.75" shape="933.22,371.01 932.12,372.02 930.63,373.37 929.15,374.73 927.66,376.09 926.17,377.45 924.67,378.82 923.17,380.19 921.67,381.56 920.17,382.93 918.67,384.30 917.16,385.67 915.65,387.05 914.14,388.43 912.62,389.81 911.10,391.19 909.58,392.57 908.06,393.96 906.54,395.34 905.01,396.73 903.48,398.12 901.95,399.51 900.42,400.90 898.89,402.30 897.35,403.69 895.81,405.09 894.27,406.49 892.72,407.88 891.18,409.28 889.63,410.69 888.08,412.09 886.53,413.49 884.98,414.90 883.43,416.30 881.87,417.71 880.31,419.11 878.75,420.52 877.19,421.93 875.63,423.34 874.07,424.75 872.50,426.16 870.93,427.57 869.36,428.99 867.79,430.40 866.22,431.81 864.65,433.23 863.08,434.64 861.50,436.06 859.92,437.47 858.35,438.89 856.77,440.30 855.19,441.72 853.61,443.14 852.02,444.56 850.44,445.97 848.86,447.39 847.27,448.81 845.68,450.23 844.10,451.64 842.51,453.06 840.92,454.48 839.33,455.90 837.74,457.31 836.15,458.73 834.55,460.15 832.96,461.57 831.37,462.98 829.77,464.40 828.18,465.81 826.58,467.23 824.99,468.65 823.39,470.06 821.80,471.47 820.20,472.89 818.60,474.30 817.00,475.71 815.41,477.13 813.81,478.54 812.21,479.95 810.61,481.36 809.01,482.77 807.41,484.17 805.81,485.58 804.21,486.99 802.62,488.39 801.02,489.80 799.42,491.20 797.82,492.60 796.22,494.01 794.62,495.41 793.02,496.80 791.42,498.20 789.82,499.60 788.23,500.99 786.63,502.39 785.03,503.78 783.43,505.17 781.84,506.56 780.24,507.95 778.65,509.34 777.05,510.72 775.46,512.10 773.86,513.49 772.27,514.87 770.67,516.25 769.08,517.62 767.49,519.00 765.90,520.37 764.31,521.74 762.72,523.11 761.13,524.48 759.55,525.84 757.96,527.21 756.37,528.57 754.79,529.93 753.21,531.29 751.62,532.64 750.04,533.99 748.46,535.34 746.88,536.69 745.30,538.04 743.73,539.38 742.15,540.72 740.58,542.06 739.01,543.40 737.43,544.73 735.86,546.06 734.29,547.39 732.73,548.72 731.16,550.04 729.60,551.36 728.03,552.68 726.47,554.00 724.91,555.31 723.36,556.62 721.80,557.93 720.25,559.23 718.69,560.53 717.14,561.83 715.59,563.12 714.05,564.42 712.50,565.70 710.96,566.99 709.41,568.27 707.88,569.55 706.34,570.83 704.80,572.10 703.27,573.37 701.74,574.63 700.21,575.90 698.68,577.16 697.16,578.41 695.63,579.66 694.11,580.91 692.60,582.16 691.08,583.40 689.57,584.64 688.06,585.87 686.55,587.10 685.04,588.33 683.54,589.55 682.04,590.77 680.54,591.98 679.05,593.19 677.55,594.40 676.06,595.60 674.58,596.80 673.09,598.00 671.61,599.19 670.13,600.37 668.65,601.55 667.18,602.73 665.71,603.91 664.24,605.08 662.78,606.24 661.32,607.40 659.86,608.56 658.40,609.71 656.95,610.86 655.50,612.00 654.06,613.14 652.61,614.27 651.18,615.40 649.74,616.52 648.31,617.64 646.88,618.76 645.45,619.87 644.03,620.97 642.61,622.07 641.19,623.17 639.78,624.26 638.37,625.34 636.97,626.42 635.57,627.50 634.17,628.57 632.77,629.63 631.38,630.69 630.00,631.75 628.61,632.80 627.23,633.84 625.86,634.88 624.49,635.91 623.12,636.94 621.76,637.96 620.40,638.98 619.04,639.99 617.69,641.00 616.34,642.00 615.00,642.99 613.66,643.98 612.32,644.96 610.99,645.94 609.66,646.91 608.34,647.88 607.15,648.75" type="driving"/>
    <lane id="-1_1" index="1" disallow="pedestrian tram rail_urban rail rail_electric rail_fast ship" speed="22.22" length="428.09" width="3.75" shape="930.69,368.24 929.59,369.25 928.10,370.60 926.62,371.96 925.13,373.32 923.64,374.69 922.14,376.05 920.65,377.42 919.15,378.79 917.64,380.16 916.14,381.53 914.63,382.90 913.12,384.28 911.61,385.66 910.10,387.04 908.58,388.42 907.06,389.80 905.54,391.18 904.02,392.57 902.49,393.96 900.96,395.35 899.43,396.74 897.90,398.13 896.36,399.52 894.83,400.92 893.29,402.31 891.75,403.71 890.21,405.11 888.66,406.51 887.12,407.91 885.57,409.31 884.02,410.71 882.47,412.11 880.91,413.52 879.36,414.92 877.80,416.33 876.24,417.74 874.68,419.15 873.12,420.56 871.55,421.97 869.99,423.38 868.42,424.79 866.86,426.20 865.29,427.61 863.72,429.02 862.14,430.44 860.57,431.85 859.00,433.27 857.42,434.68 855.84,436.10 854.26,437.51 852.68,438.93 851.10,440.35 849.52,441.76 847.94,443.18 846.36,444.59 844.77,446.01 843.18,447.43 841.60,448.85 840.01,450.26 838.42,451.68 836.83,453.10 835.24,454.51 833.65,455.93 832.06,457.35 830.47,458.76 828.88,460.18 827.28,461.59 825.69,463.01 824.10,464.42 822.50,465.84 820.91,467.25 819.31,468.67 817.71,470.08 816.12,471.49 814.52,472.90 812.92,474.32 811.33,475.73 809.73,477.14 808.13,478.54 806.53,479.95 804.93,481.36 803.34,482.77 801.74,484.17 800.14,485.58 798.54,486.98 796.94,488.38 795.35,489.78 793.75,491.18 792.15,492.58 790.55,493.98 788.95,495.38 787.36,496.77 785.76,498.17 784.16,499.56 782.57,500.95 780.97,502.34 779.38,503.73 777.78,505.12 776.19,506.51 774.59,507.89 773.00,509.27 771.41,510.65 769.81,512.03 768.22,513.41 766.63,514.79 765.04,516.16 763.45,517.53 761.86,518.90 760.27,520.27 758.69,521.64 757.10,523.00 755.52,524.36 753.93,525.72 752.35,527.08 750.77,528.44 749.18,529.79 747.60,531.14 746.03,532.49 744.45,533.84 742.87,535.19 741.30,536.53 739.72,537.87 738.15,539.21 736.58,540.54 735.01,541.87 733.44,543.20 731.87,544.53 730.31,545.86 728.74,547.18 727.18,548.50 725.62,549.81 724.06,551.13 722.50,552.44 720.94,553.75 719.39,555.05 717.84,556.36 716.28,557.66 714.74,558.95 713.19,560.25 711.64,561.54 710.10,562.82 708.56,564.11 707.02,565.39 705.48,566.67 703.94,567.94 702.41,569.21 700.88,570.48 699.35,571.74 697.82,573.00 696.30,574.26 694.77,575.52 693.25,576.77 691.74,578.01 690.22,579.26 688.71,580.50 687.19,581.73 685.69,582.96 684.18,584.19 682.68,585.42 681.18,586.64 679.68,587.86 678.18,589.07 676.69,590.28 675.20,591.48 673.71,592.68 672.22,593.88 670.74,595.07 669.26,596.26 667.79,597.45 666.31,598.63 664.84,599.80 663.37,600.97 661.91,602.14 660.45,603.30 658.99,604.46 657.53,605.62 656.08,606.77 654.63,607.91 653.18,609.05 651.74,610.19 650.30,611.32 648.86,612.45 647.43,613.57 646.00,614.69 644.57,615.80 643.15,616.91 641.73,618.01 640.31,619.11 638.90,620.20 637.49,621.29 636.09,622.37 634.68,623.45 633.28,624.52 631.89,625.59 630.50,626.65 629.11,627.71 627.73,628.76 626.35,629.81 624.97,630.85 623.60,631.88 622.23,632.92 620.87,633.94 619.51,634.96 618.15,635.97 616.80,636.98 615.45,637.99 614.11,638.98 612.77,639.98 611.43,640.96 610.10,641.94 608.77,642.92 607.45,643.89 606.13,644.85 604.94,645.72" type="driving"/>