<?xml version='1.0' encoding='UTF-8'?>
<!-- generated on 2022-09-25 13:31:34 by Eclipse SUMO netconvert Version 1.13.0
<configuration xmlns:xsi="http://www.w3.org/2001/XMLSchema-instance" xsi:noNamespaceSchemaLocation="http://sumo.dlr.de/xsd/netconvertConfiguration.xsd">

    <input>
        <opendrive-files value="map_new_new\17\44\44.xodr"/>
    </input>

    <output>
        <output-file value="C:\Users\LinGe\AppData\Local\Temp\tmp0z7m9g9c\44.net.xml"/>
    </output>

    <processing>
        <geometry.max-grade.fix value="false"/>
    </processing>

    <tls_building>
        <tls.left-green.time value="0"/>
    </tls_building>

    <junctions>
        <rectangular-lane-cut value="true"/>
    </junctions>

    <report>
        <aggregate-warnings value="5"/>
    </report>

</configuration>
-->
<net xmlns:xsi="http://www.w3.org/2001/XMLSchema-instance" version="1.9" junctionCornerDetail="5" rectangularLaneCut="true" limitTurnSpeed="5.50" xsi:noNamespaceSchemaLocation="http://sumo.dlr.de/xsd/net_file.xsd">
  <location netOffset="1.56,101.26" convBoundary="0.00,0.00,1102.73,1302.51" origBoundary="-1.56,-101.26,1101.18,1201.26" projParameter="!"/>
  <type id="bidirectional" priority="1" speed="1.39" disallow="pedestrian tram rail_urban rail rail_electric rail_fast ship" width="3.65"/>
  <type id="border" priority="0" speed="1.39" disallow="all" discard="1" width="0.10"/>
  <type id="driving" priority="1" speed="13.89" disallow="pedestrian tram rail_urban rail rail_electric rail_fast ship" width="3.65"/>
  <type id="entry" priority="1" speed="22.22" disallow="pedestrian tram rail_urban rail rail_electric rail_fast ship" width="3.65"/>
  <type id="exit" priority="1" speed="22.22" disallow="pedestrian tram rail_urban rail rail_electric rail_fast ship" width="3.65"/>
  <type id="median" priority="0" speed="1.39" disallow="all" discard="1" width="0.10"/>
  <type id="mwyEntry" priority="1" speed="22.22" allow="private emergency authority army vip passenger hov taxi bus coach delivery truck trailer motorcycle evehicle custom1 custom2" width="3.65"/>
  <type id="mwyExit" priority="1" speed="22.22" allow="private emergency authority army vip passenger hov taxi bus coach delivery truck trailer motorcycle evehicle custom1 custom2" width="3.65"/>
  <type id="none" priority="0" speed="1.39" disallow="all" discard="1" width="1.00"/>
  <type id="offRamp" priority="1" speed="22.22" allow="private emergency authority army vip passenger hov taxi bus coach delivery truck trailer motorcycle evehicle custom1 custom2" width="3.65"/>
  <type id="onRamp" priority="1" speed="22.22" allow="private emergency authority army vip passenger hov taxi bus coach delivery truck trailer motorcycle evehicle custom1 custom2" width="3.65"/>
  <type id="parking" priority="1" speed="1.39" disallow="pedestrian tram rail_urban rail rail_electric rail_fast ship" width="2.50"/>
  <type id="rail" priority="3" speed="33.33" allow="rail_urban rail rail_electric rail_fast" width="3.65"/>
  <type id="restricted" priority="0" speed="13.89" disallow="all" width="3.65"/>
  <type id="roadWorks" priority="0" speed="1.39" allow="authority" width="3.65"/>
  <type id="shoulder" priority="0" speed="1.39" disallow="all" discard="1" width="1.00"/>
  <type id="special1" priority="1" speed="22.22" allow="custom1" discard="1" width="3.65"/>
  <type id="special2" priority="1" speed="22.22" allow="custom2" discard="1" width="3.65"/>
  <type id="special3" priority="1" speed="22.22" allow="custom1 custom2" discard="1" width="3.65"/>
  <type id="stop" priority="1" speed="13.89" disallow="pedestrian tram rail_urban rail rail_electric rail_fast ship" width="3.65"/>
  <type id="tram" priority="2" speed="13.89" allow="tram" width="3.65"/>
  <edge id=":0_0" function="internal">
    <lane id=":0_0_0" index="0" disallow="pedestrian tram rail_urban rail rail_electric rail_fast ship" speed="22.22" length="33.61" width="3.75" shape="1021.14,261.99 1012.06,267.93,0.03 1004.45,273.89,0.06 998.60,279.09,0.08 994.82,282.76,0.10"/>
  </edge>
  <edge id=":0_1" function="internal">
    <lane id=":0_1_0" index="0" disallow="pedestrian tram rail_urban rail rail_electric rail_fast ship" speed="22.22" length="33.80" width="3.75" shape="1021.14,261.99 991.95,279.03"/>
    <lane id=":0_1_1" index="1" disallow="pedestrian tram rail_urban rail rail_electric rail_fast ship" speed="22.22" length="33.80" width="3.75" shape="1019.25,258.75 990.06,275.79"/>
    <lane id=":0_1_2" index="2" disallow="pedestrian tram rail_urban rail rail_electric rail_fast ship" speed="22.22" length="33.80" width="3.75" shape="1017.36,255.51 988.17,272.55"/>
  </edge>
  <edge id=":1_0" function="internal">
    <lane id=":1_0_0" index="0" disallow="pedestrian tram rail_urban rail rail_electric rail_fast ship" speed="18.06" length="226.14" width="3.75" shape="139.87,862.98 307.18,710.85"/>
  </edge>
  <edge id=":1_1" function="internal">
    <lane id=":1_1_0" index="0" disallow="pedestrian tram rail_urban rail rail_electric rail_fast ship" speed="22.22" length="226.27" width="3.75" shape="139.87,862.98 309.92,713.62"/>
    <lane id=":1_1_1" index="1" disallow="pedestrian tram rail_urban rail rail_electric rail_fast ship" speed="22.22" length="226.27" width="3.75" shape="142.36,865.78 312.37,716.46"/>
    <lane id=":1_1_2" index="2" disallow="pedestrian tram rail_urban rail rail_electric rail_fast ship" speed="22.22" length="226.27" width="3.75" shape="144.86,868.58 314.81,719.31"/>
  </edge>
  <edge id=":10_0" function="internal">
    <lane id=":10_0_0" index="0" disallow="pedestrian tram rail_urban rail rail_electric rail_fast ship" speed="18.06" length="38.80" width="3.75" shape="817.37,1029.07,19.95 820.42,1034.32,19.96 825.70,1042.34,19.97 832.49,1051.58,19.99 840.05,1060.46,20.00"/>
  </edge>
  <edge id=":10_1" function="internal">
    <lane id=":10_1_0" index="0" disallow="pedestrian tram rail_urban rail rail_electric rail_fast ship" speed="22.22" length="38.07" width="3.75" shape="813.97,1032.74,20.00 840.05,1060.46,20.00"/>
    <lane id=":10_1_1" index="1" disallow="pedestrian tram rail_urban rail rail_electric rail_fast ship" speed="22.22" length="38.07" width="3.75" shape="811.24,1035.31,20.00 837.32,1063.03,20.00"/>
    <lane id=":10_1_2" index="2" disallow="pedestrian tram rail_urban rail rail_electric rail_fast ship" speed="22.22" length="38.07" width="3.75" shape="808.51,1037.88,20.00 834.59,1065.60,20.00"/>
  </edge>
  <edge id=":11_0" function="internal">
    <lane id=":11_0_0" index="0" disallow="pedestrian tram rail_urban rail rail_electric rail_fast ship" speed="16.67" length="51.27" width="3.75" shape="365.15,660.65,0.00 371.99,656.47,0.00 383.59,648.85,0.00 396.54,639.89,0.00 407.42,631.68"/>
  </edge>
  <edge id=":11_1" function="internal">
    <lane id=":11_1_0" index="0" disallow="pedestrian tram rail_urban rail rail_electric rail_fast ship" speed="22.22" length="50.73" width="3.75" shape="368.32,664.07 407.42,631.68"/>
    <lane id=":11_1_1" index="1" disallow="pedestrian tram rail_urban rail rail_electric rail_fast ship" speed="22.22" length="50.73" width="3.75" shape="370.73,666.94 409.80,634.58"/>
    <lane id=":11_1_2" index="2" disallow="pedestrian tram rail_urban rail rail_electric rail_fast ship" speed="22.22" length="50.73" width="3.75" shape="373.14,669.82 412.17,637.48"/>
  </edge>
  <edge id=":11.10_0" function="internal">
    <lane id=":11.10_0_0" index="0" disallow="pedestrian tram rail_urban rail rail_electric rail_fast ship" speed="22.22" length="0.30" width="3.75" shape="436.53,616.59,20.00 436.72,616.82,20.00"/>
    <lane id=":11.10_0_1" index="1" disallow="pedestrian tram rail_urban rail rail_electric rail_fast ship" speed="22.22" length="0.30" width="3.75" shape="433.61,618.94,20.00 433.80,619.17,20.00"/>
    <lane id=":11.10_0_2" index="2" disallow="pedestrian tram rail_urban rail rail_electric rail_fast ship" speed="22.22" length="0.30" width="3.75" shape="430.69,621.29,20.00 430.89,621.53,20.00"/>
  </edge>
  <edge id=":16.15_0" function="internal">
    <lane id=":16.15_0_0" index="0" disallow="pedestrian tram rail_urban rail rail_electric rail_fast ship" speed="22.22" length="0.30" width="3.75" shape="419.02,631.11,20.00 418.83,630.87,20.00"/>
    <lane id=":16.15_0_1" index="1" disallow="pedestrian tram rail_urban rail rail_electric rail_fast ship" speed="22.22" length="0.30" width="3.75" shape="421.94,628.75,20.00 421.75,628.52,20.00"/>
    <lane id=":16.15_0_2" index="2" disallow="pedestrian tram rail_urban rail rail_electric rail_fast ship" speed="22.22" length="0.30" width="3.75" shape="424.85,626.40,20.00 424.67,626.17,20.00"/>
  </edge>
  <edge id=":2_0" function="internal">
    <lane id=":2_0_0" index="0" disallow="pedestrian tram rail_urban rail rail_electric rail_fast ship" speed="16.67" length="36.60" width="3.75" shape="95.38,122.89,20.00 102.04,132.05,19.98 108.95,140.21,19.96 115.01,146.65,19.94 119.11,150.66,19.93"/>
  </edge>
  <edge id=":2_1" function="internal">
    <lane id=":2_1_0" index="0" disallow="pedestrian tram rail_urban rail rail_electric rail_fast ship" speed="22.22" length="36.79" width="3.75" shape="95.38,122.89,20.00 115.54,153.66,20.00"/>
    <lane id=":2_1_1" index="1" disallow="pedestrian tram rail_urban rail rail_electric rail_fast ship" speed="22.22" length="36.79" width="3.75" shape="92.24,124.95,20.00 112.41,155.72,20.00"/>
    <lane id=":2_1_2" index="2" disallow="pedestrian tram rail_urban rail rail_electric rail_fast ship" speed="22.22" length="36.79" width="3.75" shape="89.10,127.00,20.00 109.27,157.77,20.00"/>
  </edge>
  <edge id=":2.1_0" function="internal">
    <lane id=":2.1_0_0" index="0" disallow="pedestrian tram rail_urban rail rail_electric rail_fast ship" speed="22.22" length="0.30" width="3.75" shape="525.14,568.70 524.90,568.87"/>
    <lane id=":2.1_0_1" index="1" disallow="pedestrian tram rail_urban rail rail_electric rail_fast ship" speed="22.22" length="0.30" width="3.75" shape="522.94,565.67 522.70,565.84"/>
    <lane id=":2.1_0_2" index="2" disallow="pedestrian tram rail_urban rail rail_electric rail_fast ship" speed="22.22" length="0.30" width="3.75" shape="520.74,562.63 520.49,562.81"/>
  </edge>
  <edge id=":20.19_0" function="internal">
    <lane id=":20.19_0_0" index="0" disallow="pedestrian tram rail_urban rail rail_electric rail_fast ship" speed="16.67" length="0.30" width="3.75" shape="454.93,846.09,8.26 454.64,846.01,8.24"/>
  </edge>
  <edge id=":22.21_0" function="internal">
    <lane id=":22.21_0_0" index="0" disallow="pedestrian tram rail_urban rail rail_electric rail_fast ship" speed="11.11" length="0.30" width="3.75" shape="546.63,357.17,8.97 546.92,357.22,8.96"/>
  </edge>
  <edge id=":25.24_0" function="internal">
    <lane id=":25.24_0_0" index="0" disallow="pedestrian tram rail_urban rail rail_electric rail_fast ship" speed="22.22" length="0.30" width="3.75" shape="853.08,596.56,7.45 853.07,596.86,7.46"/>
  </edge>
  <edge id=":27.26_0" function="internal">
    <lane id=":27.26_0_0" index="0" disallow="pedestrian tram rail_urban rail rail_electric rail_fast ship" speed="11.11" length="0.30" width="3.75" shape="576.50,627.66,14.83 576.20,627.64,14.84"/>
  </edge>
  <edge id=":29.28_0" function="internal">
    <lane id=":29.28_0_0" index="0" disallow="pedestrian tram rail_urban rail rail_electric rail_fast ship" speed="13.89" length="0.30" width="3.75" shape="701.55,517.13,10.62 701.83,517.22,10.63"/>
  </edge>
  <edge id=":3_0" function="internal">
    <lane id=":3_0_0" index="0" disallow="pedestrian tram rail_urban rail rail_electric rail_fast ship" speed="19.44" length="68.52" width="3.75" shape="841.83,1095.51,20.00 830.23,1084.03,20.00 814.44,1069.16,20.00 799.87,1055.74,20.00 791.90,1048.59,20.00"/>
  </edge>
  <edge id=":3_1" function="internal">
    <lane id=":3_1_0" index="0" disallow="pedestrian tram rail_urban rail rail_electric rail_fast ship" speed="22.22" length="68.64" width="3.75" shape="841.83,1095.51,20.00 794.78,1045.53,20.00"/>
    <lane id=":3_1_1" index="1" disallow="pedestrian tram rail_urban rail rail_electric rail_fast ship" speed="22.22" length="68.64" width="3.75" shape="844.56,1092.94,20.00 797.52,1042.96,20.00"/>
    <lane id=":3_1_2" index="2" disallow="pedestrian tram rail_urban rail rail_electric rail_fast ship" speed="22.22" length="68.64" width="3.75" shape="847.29,1090.37,20.00 800.25,1040.39,20.00"/>
  </edge>
  <edge id=":31.30_0" function="internal">
    <lane id=":31.30_0_0" index="0" disallow="pedestrian tram rail_urban rail rail_electric rail_fast ship" speed="11.11" length="0.28" width="3.75" shape="244.26,631.12,9.22 244.37,631.37,9.19"/>
  </edge>
  <edge id=":4_0" function="internal">
    <lane id=":4_0_0" index="0" disallow="pedestrian tram rail_urban rail rail_electric rail_fast ship" speed="16.67" length="7.98" width="3.75" shape="374.99,573.98,20.00 370.19,567.60,19.99"/>
  </edge>
  <edge id=":4_1" function="internal">
    <lane id=":4_1_0" index="0" disallow="pedestrian tram rail_urban rail rail_electric rail_fast ship" speed="22.22" length="4.06" width="3.75" shape="374.99,573.98,20.00 372.56,570.71,20.00"/>
    <lane id=":4_1_1" index="1" disallow="pedestrian tram rail_urban rail rail_electric rail_fast ship" speed="22.22" length="4.06" width="3.75" shape="378.00,571.74,20.00 375.58,568.48,20.00"/>
    <lane id=":4_1_2" index="2" disallow="pedestrian tram rail_urban rail rail_electric rail_fast ship" speed="22.22" length="4.06" width="3.75" shape="381.01,569.50,20.00 378.59,566.24,20.00"/>
  </edge>
  <edge id=":5_0" function="internal">
    <lane id=":5_0_0" index="0" disallow="pedestrian tram rail_urban rail rail_electric rail_fast ship" speed="19.44" length="61.19" width="3.75" shape="199.06,846.77 191.24,852.27 177.37,862.59 162.21,874.30 150.50,883.96"/>
  </edge>
  <edge id=":5_1" function="internal">
    <lane id=":5_1_0" index="0" disallow="pedestrian tram rail_urban rail rail_electric rail_fast ship" speed="22.22" length="60.74" width="3.75" shape="195.86,843.58 150.50,883.96"/>
    <lane id=":5_1_1" index="1" disallow="pedestrian tram rail_urban rail rail_electric rail_fast ship" speed="22.22" length="60.74" width="3.75" shape="193.37,840.77 148.00,881.16"/>
    <lane id=":5_1_2" index="2" disallow="pedestrian tram rail_urban rail rail_electric rail_fast ship" speed="22.22" length="60.74" width="3.75" shape="190.88,837.97 145.50,878.37"/>
  </edge>
  <edge id=":6_0" function="internal">
    <lane id=":6_0_0" index="0" disallow="pedestrian tram rail_urban rail rail_electric rail_fast ship" speed="16.67" length="60.63" width="3.75" shape="896.61,303.47,0.00 905.22,299.53,0.00 920.65,292.17,0.00 937.65,283.75,0.00 950.96,276.64"/>
  </edge>
  <edge id=":6_1" function="internal">
    <lane id=":6_1_0" index="0" disallow="pedestrian tram rail_urban rail rail_electric rail_fast ship" speed="22.22" length="60.25" width="3.75" shape="898.96,307.10 950.96,276.64"/>
    <lane id=":6_1_1" index="1" disallow="pedestrian tram rail_urban rail rail_electric rail_fast ship" speed="22.22" length="60.25" width="3.75" shape="900.86,310.33 952.85,279.88"/>
    <lane id=":6_1_2" index="2" disallow="pedestrian tram rail_urban rail rail_electric rail_fast ship" speed="22.22" length="60.25" width="3.75" shape="902.76,313.56 954.74,283.11"/>
  </edge>
  <edge id=":7_0" function="internal">
    <lane id=":7_0_0" index="0" disallow="pedestrian tram rail_urban rail rail_electric rail_fast ship" speed="22.22" length="64.71" width="3.75" shape="939.45,1159.43,20.00 945.66,1167.42,20.00 957.27,1181.82,20.00 970.27,1197.50,20.00 980.65,1209.32,20.00"/>
  </edge>
  <edge id=":7_1" function="internal">
    <lane id=":7_1_0" index="0" disallow="pedestrian tram rail_urban rail rail_electric rail_fast ship" speed="22.22" length="64.34" width="3.75" shape="936.44,1162.58,20.00 980.65,1209.32,20.00"/>
    <lane id=":7_1_1" index="1" disallow="pedestrian tram rail_urban rail rail_electric rail_fast ship" speed="22.22" length="64.34" width="3.75" shape="933.71,1165.15,20.00 977.93,1211.90,20.00"/>
    <lane id=":7_1_2" index="2" disallow="pedestrian tram rail_urban rail rail_electric rail_fast ship" speed="22.22" length="64.34" width="3.75" shape="930.99,1167.73,20.00 975.20,1214.47,20.00"/>
  </edge>
  <edge id=":7.6_0" function="internal">
    <lane id=":7.6_0_0" index="0" disallow="pedestrian tram rail_urban rail rail_electric rail_fast ship" speed="22.22" length="0.30" width="3.75" shape="511.52,550.48 511.77,550.30"/>
    <lane id=":7.6_0_1" index="1" disallow="pedestrian tram rail_urban rail rail_electric rail_fast ship" speed="22.22" length="0.30" width="3.75" shape="513.73,553.51 513.97,553.33"/>
    <lane id=":7.6_0_2" index="2" disallow="pedestrian tram rail_urban rail rail_electric rail_fast ship" speed="22.22" length="0.30" width="3.75" shape="515.94,556.54 516.17,556.37"/>
  </edge>
  <edge id=":8_0" function="internal">
    <lane id=":8_0_0" index="0" disallow="pedestrian tram rail_urban rail rail_electric rail_fast ship" speed="16.67" length="2.99" width="3.75" shape="853.67,586.84,7.29 853.47,589.83,7.31"/>
  </edge>
  <edge id=":8_1" function="internal">
    <lane id=":8_1_0" index="0" disallow="pedestrian tram rail_urban rail rail_electric rail_fast ship" speed="22.22" length="3.01" width="3.75" shape="853.67,586.84,7.29 853.45,589.84,7.34"/>
  </edge>
  <edge id=":9_0" function="internal">
    <lane id=":9_0_0" index="0" disallow="pedestrian tram rail_urban rail rail_electric rail_fast ship" speed="22.22" length="4.06" width="3.75" shape="372.44,570.55,20.00 370.02,567.28,20.00"/>
    <lane id=":9_0_1" index="1" disallow="pedestrian tram rail_urban rail rail_electric rail_fast ship" speed="22.22" length="4.06" width="3.75" shape="375.46,568.32,20.00 373.04,565.05,20.00"/>
    <lane id=":9_0_2" index="2" disallow="pedestrian tram rail_urban rail rail_electric rail_fast ship" speed="22.22" length="4.06" width="3.75" shape="378.47,566.08,20.00 376.06,562.82,20.00"/>
  </edge>
  <edge id=":9_3" function="internal">
    <lane id=":9_3_0" index="0" disallow="pedestrian tram rail_urban rail rail_electric rail_fast ship" speed="16.67" length="7.90" width="3.75" shape="374.86,573.53,20.00 370.02,567.28,20.00"/>
  </edge>
  <edge id="-0" from="0.begin" to="0" priority="1" type="driving" shape="1102.73,202.87 1101.64,203.54 1100.53,204.23 1099.39,204.92 1098.22,205.63 1097.02,206.36 1095.80,207.10 1094.56,207.85 1093.29,208.62 1091.99,209.40 1090.67,210.19 1089.32,211.00 1087.95,211.82 1086.56,212.66 1085.14,213.50 1083.70,214.36 1082.23,215.24 1080.74,216.13 1079.23,217.02 1077.69,217.94 1076.13,218.86 1074.55,219.80 1072.94,220.75 1071.31,221.71 1069.66,222.69 1067.99,223.68 1066.30,224.68 1064.58,225.69 1062.84,226.71 1061.08,227.75 1059.30,228.79 1057.50,229.85 1055.68,230.92 1053.84,232.01 1051.97,233.10 1050.09,234.20 1048.19,235.32 1046.26,236.45 1044.32,237.59 1042.36,238.73 1040.38,239.89 1038.38,241.07 1036.36,242.25 1034.32,243.44 1032.26,244.64 1030.19,245.85 1028.09,247.08 1025.98,248.31 1023.85,249.55 1021.71,250.81 1019.54,252.07 1017.36,253.34 1015.16,254.63 1012.95,255.92">
    <lane id="-0_0" index="0" disallow="pedestrian tram rail_urban rail rail_electric rail_fast ship" speed="22.22" length="100.39" width="3.75" shape="1107.63,210.87 1106.54,211.54 1105.42,212.22 1104.26,212.93 1103.09,213.64 1101.89,214.37 1100.66,215.12 1099.41,215.87 1098.13,216.65 1096.83,217.43 1095.50,218.23 1094.15,219.04 1092.77,219.86 1091.37,220.70 1089.95,221.55 1088.50,222.42 1087.03,223.29 1085.53,224.18 1084.02,225.08 1082.47,226.00 1080.91,226.93 1079.32,227.87 1077.72,228.82 1076.08,229.78 1074.43,230.76 1072.75,231.75 1071.06,232.75 1069.34,233.77 1067.60,234.79 1065.84,235.83 1064.05,236.88 1062.25,237.94 1060.43,239.01 1058.58,240.09 1056.72,241.19 1054.83,242.29 1052.93,243.41 1051.00,244.54 1049.06,245.68 1047.09,246.82 1045.11,247.99 1043.11,249.16 1041.09,250.34 1039.05,251.53 1036.99,252.73 1034.92,253.95 1032.82,255.17 1030.71,256.41 1028.58,257.65 1026.43,258.90 1024.27,260.17 1022.09,261.44 1021.14,261.99" type="driving"/>
    <lane id="-0_1" index="1" disallow="pedestrian tram rail_urban rail rail_electric rail_fast ship" speed="22.22" length="100.39" width="3.75" shape="1105.67,207.67 1104.58,208.34 1103.46,209.02 1102.31,209.73 1101.14,210.44 1099.94,211.17 1098.72,211.91 1097.47,212.67 1096.19,213.43 1094.89,214.22 1093.57,215.01 1092.22,215.82 1090.84,216.65 1089.45,217.48 1088.02,218.33 1086.58,219.20 1085.11,220.07 1083.62,220.96 1082.10,221.86 1080.56,222.77 1079.00,223.70 1077.41,224.64 1075.81,225.59 1074.18,226.56 1072.52,227.53 1070.85,228.52 1069.15,229.52 1067.43,230.53 1065.70,231.56 1063.93,232.60 1062.15,233.64 1060.35,234.70 1058.53,235.77 1056.68,236.86 1054.82,237.95 1052.93,239.06 1051.03,240.17 1049.11,241.30 1047.16,242.44 1045.20,243.59 1043.22,244.75 1041.22,245.92 1039.20,247.10 1037.16,248.29 1035.10,249.50 1033.02,250.71 1030.93,251.93 1028.82,253.17 1026.69,254.41 1024.54,255.66 1022.38,256.93 1020.20,258.20 1019.25,258.75" type="driving"/>
    <lane id="-0_2" index="2" disallow="pedestrian tram rail_urban rail rail_electric rail_fast ship" speed="22.22" length="100.39" width="3.75" shape="1103.71,204.47 1102.62,205.14 1101.50,205.82 1100.36,206.52 1099.19,207.24 1098.00,207.96 1096.77,208.70 1095.53,209.46 1094.26,210.22 1092.96,211.00 1091.64,211.80 1090.29,212.61 1088.92,213.43 1087.52,214.26 1086.10,215.11 1084.66,215.97 1083.19,216.85 1081.70,217.74 1080.19,218.64 1078.65,219.55 1077.09,220.48 1075.50,221.41 1073.90,222.37 1072.27,223.33 1070.62,224.30 1068.94,225.29 1067.25,226.29 1065.53,227.30 1063.79,228.33 1062.03,229.36 1060.25,230.41 1058.45,231.47 1056.63,232.54 1054.78,233.62 1052.92,234.72 1051.04,235.82 1049.13,236.94 1047.21,238.07 1045.27,239.20 1043.30,240.35 1041.32,241.51 1039.32,242.68 1037.30,243.87 1035.26,245.06 1033.21,246.26 1031.13,247.47 1029.04,248.70 1026.93,249.93 1024.80,251.17 1022.65,252.43 1020.49,253.69 1018.31,254.96 1017.36,255.51" type="driving"/>
  </edge>
  <edge id="-1" from="0" to="2.1" priority="1" type="driving" shape="1012.95,255.92 1011.54,256.74 1010.12,257.57 1008.69,258.40 1007.26,259.24 1005.82,260.08 1004.37,260.92 1002.92,261.77 1001.46,262.62 1000.00,263.48 998.52,264.34 997.05,265.20 995.56,266.06 994.07,266.93 992.58,267.81 991.08,268.68 989.57,269.56 988.05,270.44 986.54,271.33 985.01,272.22 983.48,273.11 981.94,274.01 980.40,274.91 978.85,275.81 977.30,276.72 975.74,277.63 974.18,278.54 972.61,279.46 971.03,280.38 969.45,281.30 967.86,282.23 966.27,283.16 964.68,284.09 963.08,285.03 961.47,285.96 959.86,286.91 958.24,287.85 956.62,288.80 954.99,289.75 953.36,290.70 951.73,291.66 950.09,292.62 948.44,293.58 946.79,294.54 945.14,295.51 943.48,296.48 941.81,297.46 940.15,298.43 938.47,299.41 936.80,300.39 935.12,301.38 933.43,302.36 931.74,303.35 930.05,304.35 928.35,305.34 926.65,306.34 924.94,307.34 923.23,308.34 921.52,309.34 919.80,310.35 918.08,311.36 916.36,312.37 914.63,313.39 912.89,314.41 911.16,315.43 909.42,316.45 907.68,317.47 905.93,318.50 904.18,319.53 902.43,320.56 900.67,321.59 898.91,322.63 897.15,323.66 895.38,324.70 893.61,325.74 891.84,326.79 890.06,327.83 888.28,328.88 886.50,329.93 884.72,330.98 882.93,332.04 881.14,333.09 879.35,334.15 877.55,335.21 875.75,336.27 873.95,337.34 872.15,338.40 870.34,339.47 868.54,340.54 866.73,341.61 864.91,342.68 863.10,343.75 861.28,344.83 859.46,345.91 857.64,346.99 855.81,348.07 853.99,349.15 852.16,350.23 850.33,351.32 848.50,352.41 846.66,353.49 844.83,354.58 842.99,355.68 841.15,356.77 839.31,357.86 837.47,358.96 835.62,360.06 833.78,361.15 831.93,362.25 830.08,363.36 828.23,364.46 826.38,365.56 824.53,366.67 822.68,367.77 820.82,368.88 818.97,369.99 817.11,371.10 815.25,372.21 813.39,373.32 811.53,374.43 809.67,375.55 807.81,376.66 805.95,377.78 804.08,378.89 802.22,380.01 800.35,381.13 798.49,382.25 796.62,383.37 794.76,384.49 792.89,385.61 791.02,386.73 789.16,387.86 787.29,388.98 785.42,390.11 783.55,391.23 781.68,392.36 779.81,393.49 777.94,394.61 776.08,395.74 774.21,396.87 772.34,398.00 770.47,399.13 768.60,400.26 766.73,401.39 764.87,402.52 763.00,403.66 761.13,404.79 759.26,405.92 757.40,407.05 755.53,408.19 753.67,409.32 751.80,410.46 749.94,411.59 748.08,412.73 746.21,413.86 744.35,415.00 742.49,416.13 740.63,417.27 738.77,418.40 736.91,419.54 735.06,420.67 733.20,421.81 731.35,422.94 729.49,424.08 727.64,425.22 725.79,426.35 723.94,427.49 722.09,428.62 720.25,429.76 718.40,430.90 716.56,432.03 714.72,433.17 712.88,434.30 711.04,435.44 709.20,436.57 707.36,437.71 705.53,438.84 703.70,439.97 701.87,441.11 700.04,442.24 698.22,443.37 696.39,444.50 694.57,445.64 692.75,446.77 690.93,447.90 689.12,449.03 687.31,450.16 685.50,451.29 683.69,452.42 681.88,453.54 680.08,454.67 678.28,455.80 676.48,456.93 674.69,458.05 672.90,459.18 671.11,460.30 669.32,461.42 667.54,462.55 665.76,463.67 663.98,464.79 662.20,465.91 660.43,467.03 658.66,468.15 656.90,469.26 655.13,470.38 653.37,471.50 651.62,472.61 649.86,473.72 648.12,474.84 646.37,475.95 644.63,477.06 642.89,478.17 641.15,479.28 639.42,480.38 637.69,481.49 635.97,482.59 634.25,483.70 632.53,484.80 630.82,485.90 629.11,487.00 627.40,488.10 625.70,489.19 624.01,490.29 622.31,491.38 620.63,492.47 618.94,493.57 617.26,494.65 615.59,495.74 613.91,496.83 612.25,497.91 610.58,499.00 608.93,500.08 607.27,501.16 605.62,502.24 603.98,503.32 602.34,504.39 600.70,505.47 599.07,506.54 597.45,507.61 595.83,508.68 594.21,509.74 592.60,510.81 591.00,511.87 589.40,512.93 587.80,513.99 586.21,515.05 584.63,516.10 583.05,517.16 581.47,518.21 579.90,519.26 578.34,520.30 576.78,521.35 575.23,522.39 573.68,523.43 572.14,524.47 570.61,525.51 569.08,526.55 567.55,527.58 566.03,528.61 564.52,529.64 563.02,530.66 561.52,531.69 560.02,532.71 558.53,533.72 557.05,534.74 555.57,535.76 554.10,536.77 552.64,537.78 551.18,538.78 549.73,539.79 548.29,540.79 546.85,541.79 545.42,542.78 543.99,543.78 542.57,544.77 541.16,545.76 539.75,546.75 538.36,547.73 536.96,548.71 535.58,549.69 534.20,550.66 532.83,551.64 531.47,552.61 530.11,553.57 528.76,554.54 527.42,555.50 526.08,556.46 524.75,557.41 523.43,558.37 522.12,559.31 520.81,560.26 519.51,561.21">