<?xml version='1.0' encoding='UTF-8'?>
<!-- generated on 2022-09-02 17:11:12 by Eclipse SUMO netconvert Version 1.13.0
<configuration xmlns:xsi="http://www.w3.org/2001/XMLSchema-instance" xsi:noNamespaceSchemaLocation="http://sumo.dlr.de/xsd/netconvertConfiguration.xsd">

    <input>
        <opendrive-files value="map\classification\18\66116615\66116615.xodr"/>
    </input>

    <output>
        <output-file value="C:\Users\LinGe\AppData\Local\Temp\tmpepkz3n8f\66116615.net.xml"/>
    </output>

    <processing>
        <geometry.max-grade.fix value="false"/>
    </processing>

    <tls_building>
        <tls.left-green.time value="0"/>
    </tls_building>

    <junctions>
        <rectangular-lane-cut value="true"/>
    </junctions>

    <report>
        <aggregate-warnings value="5"/>
    </report>

</configuration>
-->
<net xmlns:xsi="http://www.w3.org/2001/XMLSchema-instance" version="1.9" junctionCornerDetail="5" rectangularLaneCut="true" limitTurnSpeed="5.50" xsi:noNamespaceSchemaLocation="http://sumo.dlr.de/xsd/net_file.xsd">
  <location netOffset="1.56,101.26" convBoundary="0.00,0.00,1102.73,1302.51" origBoundary="-1.56,-101.26,1101.18,1201.26" projParameter="!"/>
  <type id="bidirectional" priority="1" speed="1.39" disallow="pedestrian tram rail_urban rail rail_electric rail_fast ship" width="3.65"/>
  <type id="border" priority="0" speed="1.39" disallow="all" discard="1" width="0.10"/>
  <type id="driving" priority="1" speed="13.89" disallow="pedestrian tram rail_urban rail rail_electric rail_fast ship" width="3.65"/>
  <type id="entry" priority="1" speed="22.22" disallow="pedestrian tram rail_urban rail rail_electric rail_fast ship" width="3.65"/>
  <type id="exit" priority="1" speed="22.22" disallow="pedestrian tram rail_urban rail rail_electric rail_fast ship" width="3.65"/>
  <type id="median" priority="0" speed="1.39" disallow="all" discard="1" width="0.10"/>
  <type id="mwyEntry" priority="1" speed="22.22" allow="private emergency authority army vip passenger hov taxi bus coach delivery truck trailer motorcycle evehicle custom1 custom2" width="3.65"/>
  <type id="mwyExit" priority="1" speed="22.22" allow="private emergency authority army vip passenger hov taxi bus coach delivery truck trailer motorcycle evehicle custom1 custom2" width="3.65"/>
  <type id="none" priority="0" speed="1.39" disallow="all" discard="1" width="1.00"/>
  <type id="offRamp" priority="1" speed="22.22" allow="private emergency authority army vip passenger hov taxi bus coach delivery truck trailer motorcycle evehicle custom1 custom2" width="3.65"/>
  <type id="onRamp" priority="1" speed="22.22" allow="private emergency authority army vip passenger hov taxi bus coach delivery truck trailer motorcycle evehicle custom1 custom2" width="3.65"/>
  <type id="parking" priority="1" speed="1.39" disallow="pedestrian tram rail_urban rail rail_electric rail_fast ship" width="2.50"/>
  <type id="rail" priority="3" speed="33.33" allow="rail_urban rail rail_electric rail_fast" width="3.65"/>
  <type id="restricted" priority="0" speed="13.89" disallow="all" width="3.65"/>
  <type id="roadWorks" priority="0" speed="1.39" allow="authority" width="3.65"/>
  <type id="shoulder" priority="0" speed="1.39" disallow="all" discard="1" width="1.00"/>
  <type id="special1" priority="1" speed="22.22" allow="custom1" discard="1" width="3.65"/>
  <type id="special2" priority="1" speed="22.22" allow="custom2" discard="1" width="3.65"/>
  <type id="special3" priority="1" speed="22.22" allow="custom1 custom2" discard="1" width="3.65"/>
  <type id="stop" priority="1" speed="13.89" disallow="pedestrian tram rail_urban rail rail_electric rail_fast ship" width="3.65"/>
  <type id="tram" priority="2" speed="13.89" allow="tram" width="3.65"/>
  <edge id=":0_0" function="internal">
    <lane id=":0_0_0" index="0" disallow="pedestrian tram rail_urban rail rail_electric rail_fast ship" speed="15.28" length="101.37" width="3.75" shape="968.02,331.93 952.20,346.42 928.16,368.99 905.59,390.38 894.19,401.38"/>
  </edge>
  <edge id=":0_1" function="internal">
    <lane id=":0_1_0" index="0" disallow="pedestrian tram rail_urban rail rail_electric rail_fast ship" speed="22.22" length="101.49" width="3.75" shape="968.02,331.93 891.33,398.41"/>
    <lane id=":0_1_1" index="1" disallow="pedestrian tram rail_urban rail rail_electric rail_fast ship" speed="22.22" length="101.49" width="3.75" shape="965.56,329.10 888.88,395.58"/>
    <lane id=":0_1_2" index="2" disallow="pedestrian tram rail_urban rail rail_electric rail_fast ship" speed="22.22" length="101.49" width="3.75" shape="963.10,326.27 886.43,392.74"/>
  </edge>
  <edge id=":1_0" function="internal">
    <lane id=":1_0_0" index="0" disallow="pedestrian tram rail_urban rail rail_electric rail_fast ship" speed="15.28" length="30.00" width="3.75" shape="603.39,612.33 610.99,605.46 616.64,599.20 620.49,593.84 622.74,589.69"/>
  </edge>
  <edge id=":1_1" function="internal">
    <lane id=":1_1_0" index="0" disallow="pedestrian tram rail_urban rail rail_electric rail_fast ship" speed="22.22" length="30.52" width="3.75" shape="603.39,612.33 626.96,592.97"/>
    <lane id=":1_1_1" index="1" disallow="pedestrian tram rail_urban rail rail_electric rail_fast ship" speed="22.22" length="30.52" width="3.75" shape="605.76,615.24 629.35,595.87"/>
    <lane id=":1_1_2" index="2" disallow="pedestrian tram rail_urban rail rail_electric rail_fast ship" speed="22.22" length="30.52" width="3.75" shape="608.14,618.14 631.74,598.76"/>
  </edge>
  <edge id=":10_0" function="internal">
    <lane id=":10_0_0" index="0" disallow="pedestrian tram rail_urban rail rail_electric rail_fast ship" speed="11.82" length="18.04" width="3.75" shape="290.70,327.33,19.99 291.40,322.43,20.00 291.00,317.98,20.00 289.51,314.00,20.00 286.92,310.48,20.00"/>
  </edge>
  <edge id=":10_1" function="internal">
    <lane id=":10_1_0" index="0" disallow="pedestrian tram rail_urban rail rail_electric rail_fast ship" speed="22.22" length="15.67" width="3.75" shape="297.71,321.83,20.00 286.92,310.48,20.00"/>
    <lane id=":10_1_1" index="1" disallow="pedestrian tram rail_urban rail rail_electric rail_fast ship" speed="22.22" length="15.67" width="3.75" shape="300.43,319.25,20.00 289.64,307.89,20.00"/>
    <lane id=":10_1_2" index="2" disallow="pedestrian tram rail_urban rail rail_electric rail_fast ship" speed="22.22" length="15.67" width="3.75" shape="303.15,316.67,20.00 292.35,305.30,20.00"/>
  </edge>
  <edge id=":11_0" function="internal">
    <lane id=":11_0_0" index="0" disallow="pedestrian tram rail_urban rail rail_electric rail_fast ship" speed="8.33" length="128.03" width="3.75" shape="826.40,755.14,13.50 863.63,877.64,13.54"/>
  </edge>
  <edge id=":11_1" function="internal">
    <lane id=":11_1_0" index="0" disallow="pedestrian tram rail_urban rail rail_electric rail_fast ship" speed="13.89" length="127.93" width="3.75" shape="822.77,756.41,13.49 863.63,877.64,13.54"/>
  </edge>
  <edge id=":15.14_0" function="internal">
    <lane id=":15.14_0_0" index="0" disallow="pedestrian tram rail_urban rail rail_electric rail_fast ship" speed="22.22" length="0.30" width="3.75" shape="478.40,523.24,20.00 478.21,523.01,20.00"/>
    <lane id=":15.14_0_1" index="1" disallow="pedestrian tram rail_urban rail rail_electric rail_fast ship" speed="22.22" length="0.30" width="3.75" shape="481.32,520.89,20.00 481.13,520.65,20.00"/>
    <lane id=":15.14_0_2" index="2" disallow="pedestrian tram rail_urban rail rail_electric rail_fast ship" speed="22.22" length="0.30" width="3.75" shape="484.23,518.53,20.00 484.04,518.29,20.00"/>
  </edge>
  <edge id=":19.18_0" function="internal">
    <lane id=":19.18_0_0" index="0" disallow="pedestrian tram rail_urban rail rail_electric rail_fast ship" speed="16.67" length="0.30" width="3.75" shape="570.89,937.30,10.39 570.60,937.23,10.38"/>
  </edge>
  <edge id=":2_0" function="internal">
    <lane id=":2_0_0" index="0" disallow="pedestrian tram rail_urban rail rail_electric rail_fast ship" speed="20.83" length="88.33" width="3.75" shape="94.85,80.53,20.00 108.88,93.96,20.00 129.77,113.33,20.00 149.40,131.30,20.00 159.67,140.53,20.00"/>
  </edge>
  <edge id=":2_1" function="internal">
    <lane id=":2_1_0" index="0" disallow="pedestrian tram rail_urban rail rail_electric rail_fast ship" speed="22.22" length="88.44" width="3.75" shape="94.85,80.53,20.00 156.88,143.57,20.00"/>
    <lane id=":2_1_1" index="1" disallow="pedestrian tram rail_urban rail rail_electric rail_fast ship" speed="22.22" length="88.44" width="3.75" shape="92.18,83.16,20.00 154.20,146.20,20.00"/>
    <lane id=":2_1_2" index="2" disallow="pedestrian tram rail_urban rail rail_electric rail_fast ship" speed="22.22" length="88.44" width="3.75" shape="89.51,85.79,20.00 151.53,148.83,20.00"/>
  </edge>
  <edge id=":2.1_0" function="internal">
    <lane id=":2.1_0_0" index="0" disallow="pedestrian tram rail_urban rail rail_electric rail_fast ship" speed="22.22" length="0.30" width="3.75" shape="490.97,729.29 490.73,729.47"/>
    <lane id=":2.1_0_1" index="1" disallow="pedestrian tram rail_urban rail rail_electric rail_fast ship" speed="22.22" length="0.30" width="3.75" shape="488.77,726.26 488.52,726.44"/>
    <lane id=":2.1_0_2" index="2" disallow="pedestrian tram rail_urban rail rail_electric rail_fast ship" speed="22.22" length="0.30" width="3.75" shape="486.56,723.23 486.32,723.40"/>
  </edge>
  <edge id=":21.20_0" function="internal">
    <lane id=":21.20_0_0" index="0" disallow="pedestrian tram rail_urban rail rail_electric rail_fast ship" speed="19.44" length="0.30" width="3.75" shape="675.67,373.31,7.08 675.97,373.36,7.07"/>
  </edge>
  <edge id=":24.23_0" function="internal">
    <lane id=":24.23_0_0" index="0" disallow="pedestrian tram rail_urban rail rail_electric rail_fast ship" speed="8.33" length="0.30" width="3.75" shape="798.03,635.58,7.87 798.03,635.87,7.88"/>
  </edge>
  <edge id=":27.26_0" function="internal">
    <lane id=":27.26_0_0" index="0" disallow="pedestrian tram rail_urban rail rail_electric rail_fast ship" speed="8.33" length="0.28" width="3.75" shape="577.43,520.76,10.69 577.20,520.61,10.73"/>
  </edge>
  <edge id=":29.28_0" function="internal">
    <lane id=":29.28_0_0" index="0" disallow="pedestrian tram rail_urban rail rail_electric rail_fast ship" speed="19.44" length="0.30" width="3.75" shape="314.90,951.02,13.34 314.64,950.87,13.35"/>
  </edge>
  <edge id=":3_0" function="internal">
    <lane id=":3_0_0" index="0" disallow="pedestrian tram rail_urban rail rail_electric rail_fast ship" speed="19.44" length="49.48" width="3.75" shape="890.86,1092.67,20.00 882.74,1082.08,20.00 872.99,1070.50,20.00 864.19,1060.58,20.00 858.86,1054.97,20.00"/>
  </edge>
  <edge id=":3_1" function="internal">
    <lane id=":3_1_0" index="0" disallow="pedestrian tram rail_urban rail rail_electric rail_fast ship" speed="22.22" length="49.69" width="3.75" shape="890.86,1092.67,20.00 862.26,1052.03,20.00"/>
    <lane id=":3_1_1" index="1" disallow="pedestrian tram rail_urban rail rail_electric rail_fast ship" speed="22.22" length="49.69" width="3.75" shape="893.93,1090.51,20.00 865.33,1049.87,20.00"/>
    <lane id=":3_1_2" index="2" disallow="pedestrian tram rail_urban rail rail_electric rail_fast ship" speed="22.22" length="49.69" width="3.75" shape="897.00,1088.35,20.00 868.39,1047.71,20.00"/>
  </edge>
  <edge id=":31.30_0" function="internal">
    <lane id=":31.30_0_0" index="0" disallow="pedestrian tram rail_urban rail rail_electric rail_fast ship" speed="19.44" length="0.30" width="3.75" shape="217.75,186.22,12.96 218.02,186.10,12.96"/>
  </edge>
  <edge id=":4_0" function="internal">
    <lane id=":4_0_0" index="0" disallow="pedestrian tram rail_urban rail rail_electric rail_fast ship" speed="19.44" length="28.49" width="3.75" shape="208.50,908.31,0.09 203.95,909.04,0.08 197.82,910.39,0.06 190.29,912.85,0.03 181.51,916.93"/>
  </edge>
  <edge id=":4_1" function="internal">
    <lane id=":4_1_0" index="0" disallow="pedestrian tram rail_urban rail rail_electric rail_fast ship" speed="22.22" length="27.49" width="3.75" shape="205.68,903.80 181.51,916.93"/>
    <lane id=":4_1_1" index="1" disallow="pedestrian tram rail_urban rail rail_electric rail_fast ship" speed="22.22" length="27.49" width="3.75" shape="203.88,900.51 179.72,913.64"/>
    <lane id=":4_1_2" index="2" disallow="pedestrian tram rail_urban rail rail_electric rail_fast ship" speed="22.22" length="27.49" width="3.75" shape="202.08,897.22 177.94,910.34"/>
  </edge>
  <edge id=":5_0" function="internal">
    <lane id=":5_0_0" index="0" disallow="pedestrian tram rail_urban rail rail_electric rail_fast ship" speed="16.67" length="3.00" width="3.75" shape="671.85,964.28,12.38 668.97,963.43,12.31"/>
  </edge>
  <edge id=":5_1" function="internal">
    <lane id=":5_1_0" index="0" disallow="pedestrian tram rail_urban rail rail_electric rail_fast ship" speed="18.06" length="3.00" width="3.75" shape="671.85,964.28,12.38 668.97,963.43,12.35"/>
  </edge>
  <edge id=":5.4_0" function="internal">
    <lane id=":5.4_0_0" index="0" disallow="pedestrian tram rail_urban rail rail_electric rail_fast ship" speed="22.22" length="0.30" width="3.75" shape="477.35,711.07 477.59,710.90"/>
    <lane id=":5.4_0_1" index="1" disallow="pedestrian tram rail_urban rail rail_electric rail_fast ship" speed="22.22" length="0.30" width="3.75" shape="479.56,714.10 479.80,713.93"/>
    <lane id=":5.4_0_2" index="2" disallow="pedestrian tram rail_urban rail rail_electric rail_fast ship" speed="22.22" length="0.30" width="3.75" shape="481.76,717.14 482.01,716.96"/>
  </edge>
  <edge id=":6_0" function="internal">
    <lane id=":6_0_0" index="0" disallow="pedestrian tram rail_urban rail rail_electric rail_fast ship" speed="20.83" length="60.59" width="3.75" shape="961.57,301.65,0.00 969.32,296.21,0.00 983.12,286.14,0.00 998.26,274.74,0.00 1010.02,265.28"/>
  </edge>
  <edge id=":6_1" function="internal">
    <lane id=":6_1_0" index="0" disallow="pedestrian tram rail_urban rail rail_electric rail_fast ship" speed="22.22" length="60.20" width="3.75" shape="964.59,304.79 1010.02,265.28"/>
    <lane id=":6_1_1" index="1" disallow="pedestrian tram rail_urban rail rail_electric rail_fast ship" speed="22.22" length="60.20" width="3.75" shape="967.05,307.62 1012.48,268.11"/>
    <lane id=":6_1_2" index="2" disallow="pedestrian tram rail_urban rail rail_electric rail_fast ship" speed="22.22" length="60.20" width="3.75" shape="969.51,310.45 1014.94,270.94"/>
  </edge>
  <edge id=":7_0" function="internal">
    <lane id=":7_0_0" index="0" disallow="pedestrian tram rail_urban rail rail_electric rail_fast ship" speed="15.28" length="35.47" width="3.75" shape="954.21,1135.14,19.88 956.38,1140.26,19.90 959.89,1147.96,19.93 964.65,1157.10,19.96 970.56,1166.54,20.00"/>
  </edge>
  <edge id=":7_1" function="internal">
    <lane id=":7_1_0" index="0" disallow="pedestrian tram rail_urban rail rail_electric rail_fast ship" speed="22.22" length="34.83" width="3.75" shape="950.55,1138.03,20.00 970.56,1166.54,20.00"/>
    <lane id=":7_1_1" index="1" disallow="pedestrian tram rail_urban rail rail_electric rail_fast ship" speed="22.22" length="34.83" width="3.75" shape="947.48,1140.19,20.00 967.49,1168.69,20.00"/>
    <lane id=":7_1_2" index="2" disallow="pedestrian tram rail_urban rail rail_electric rail_fast ship" speed="22.22" length="34.83" width="3.75" shape="944.41,1142.34,20.00 964.43,1170.85,20.00"/>
  </edge>
  <edge id=":8_0" function="internal">
    <lane id=":8_0_0" index="0" disallow="pedestrian tram rail_urban rail rail_electric rail_fast ship" speed="8.33" length="3.00" width="3.75" shape="797.99,597.21,6.62 797.93,600.20,6.72"/>
  </edge>
  <edge id=":8_1" function="internal">
    <lane id=":8_1_0" index="0" disallow="pedestrian tram rail_urban rail rail_electric rail_fast ship" speed="13.89" length="3.00" width="3.75" shape="797.99,597.21,6.62 797.93,600.21,6.67"/>
  </edge>
  <edge id=":9_0" function="internal">
    <lane id=":9_0_0" index="0" disallow="pedestrian tram rail_urban rail rail_electric rail_fast ship" speed="15.28" length="31.51" width="3.75" shape="523.46,533.70,20.00 524.55,538.50,20.00 527.12,545.11,20.00 531.31,553.03,20.00 537.22,561.75,20.00"/>
  </edge>
  <edge id=":9_1" function="internal">
    <lane id=":9_1_0" index="0" disallow="pedestrian tram rail_urban rail rail_electric rail_fast ship" speed="22.22" length="30.20" width="3.75" shape="518.82,537.75,20.00 537.22,561.75,20.00"/>
    <lane id=":9_1_1" index="1" disallow="pedestrian tram rail_urban rail rail_electric rail_fast ship" speed="22.22" length="30.20" width="3.75" shape="515.86,540.05,20.00 534.23,564.02,20.00"/>
    <lane id=":9_1_2" index="2" disallow="pedestrian tram rail_urban rail rail_electric rail_fast ship" speed="22.22" length="30.20" width="3.75" shape="512.90,542.35,20.00 531.25,566.29,20.00"/>
  </edge>
  <edge id=":9.10_0" function="internal">
    <lane id=":9.10_0_0" index="0" disallow="pedestrian tram rail_urban rail rail_electric rail_fast ship" speed="22.22" length="0.30" width="3.75" shape="495.91,508.71,20.00 496.10,508.95,20.00"/>
    <lane id=":9.10_0_1" index="1" disallow="pedestrian tram rail_urban rail rail_electric rail_fast ship" speed="22.22" length="0.30" width="3.75" shape="492.99,511.07,20.00 493.18,511.30,20.00"/>
    <lane id=":9.10_0_2" index="2" disallow="pedestrian tram rail_urban rail rail_electric rail_fast ship" speed="22.22" length="0.30" width="3.75" shape="490.08,513.43,20.00 490.26,513.66,20.00"/>
  </edge>
  <edge id="-0" from="0.begin" to="0" priority="1" type="driving" shape="1102.73,202.87 1101.98,203.51 1101.20,204.16 1100.41,204.83 1099.60,205.52 1098.77,206.22 1097.92,206.94 1097.05,207.67 1096.17,208.43 1095.27,209.20 1094.34,209.98 1093.40,210.78 1092.45,211.60 1091.47,212.43 1090.48,213.28 1089.47,214.15 1088.44,215.03 1087.39,215.93 1086.33,216.84 1085.25,217.77 1084.15,218.71 1083.04,219.67 1081.90,220.64 1080.76,221.63 1079.59,222.63 1078.41,223.65 1077.21,224.68 1076.00,225.73 1074.77,226.79 1073.52,227.87 1072.26,228.96 1070.98,230.06 1069.69,231.18 1068.38,232.31 1067.05,233.46 1065.71,234.62 1064.35,235.79 1062.98,236.98 1061.59,238.18 1060.19,239.40 1058.78,240.63 1057.34,241.87 1055.90,243.12 1054.44,244.39 1052.96,245.67 1051.47,246.96 1049.97,248.27 1048.45,249.58 1046.92,250.91 1045.37,252.26 1043.81,253.61 1042.23,254.98 1040.65,256.36 1039.04,257.75 1037.43,259.15 1035.80,260.57 1034.16,261.99 1032.50,263.43 1030.84,264.88 1029.16,266.34 1027.46,267.82 1025.76,269.30 1024.04,270.79 1022.31,272.30 1020.56,273.82 1018.81,275.34 1017.04,276.88 1015.26,278.43 1013.47,279.99 1011.66,281.56 1009.85,283.14 1008.02,284.73 1006.18,286.33 1004.33,287.94 1002.47,289.56 1000.59,291.19 998.71,292.82 996.81,294.47 994.91,296.13 992.99,297.80 991.06,299.47 989.12,301.16 987.18,302.86 985.22,304.56 983.25,306.27 981.27,307.99 979.28,309.72 977.28,311.46 975.27,313.21 973.25,314.96 971.22,316.73 969.18,318.50 967.14,320.28 965.08,322.07 963.01,323.86 960.94,325.67 958.85,327.48">
    <lane id="-0_0" index="0" disallow="pedestrian tram rail_urban rail rail_electric rail_fast ship" speed="22.22" length="186.24" width="3.75" shape="1108.77,210.05 1108.02,210.68 1107.25,211.33 1106.46,211.99 1105.66,212.67 1104.83,213.37 1103.99,214.09 1103.12,214.82 1102.24,215.57 1101.34,216.33 1100.42,217.12 1099.49,217.91 1098.53,218.73 1097.56,219.56 1096.57,220.41 1095.56,221.27 1094.54,222.15 1093.49,223.04 1092.43,223.95 1091.36,224.88 1090.26,225.82 1089.15,226.78 1088.02,227.75 1086.87,228.73 1085.71,229.73 1084.53,230.75 1083.33,231.78 1082.12,232.83 1080.89,233.89 1079.65,234.96 1078.39,236.05 1077.11,237.16 1075.82,238.27 1074.51,239.40 1073.18,240.55 1071.84,241.71 1070.49,242.88 1069.12,244.07 1067.73,245.27 1066.33,246.48 1064.92,247.71 1063.48,248.95 1062.04,250.20 1060.58,251.47 1059.10,252.75 1057.62,254.04 1056.11,255.35 1054.59,256.66 1053.06,257.99 1051.52,259.34 1049.96,260.69 1048.38,262.06 1046.79,263.44 1045.19,264.83 1043.58,266.23 1041.95,267.64 1040.31,269.07 1038.65,270.51 1036.99,271.96 1035.31,273.42 1033.61,274.89 1031.91,276.37 1030.19,277.87 1028.46,279.37 1026.71,280.89 1024.96,282.42 1023.19,283.96 1021.41,285.50 1019.62,287.06 1017.81,288.63 1016.00,290.21 1014.17,291.80 1012.33,293.40 1010.48,295.01 1008.62,296.63 1006.75,298.26 1004.86,299.90 1002.97,301.55 1001.06,303.20 999.14,304.87 997.22,306.55 995.28,308.23 993.33,309.93 991.37,311.63 989.40,313.35 987.42,315.07 985.43,316.80 983.43,318.54 981.42,320.28 979.40,322.04 977.37,323.80 975.33,325.58 973.29,327.36 971.23,329.14 969.16,330.94 968.02,331.93" type="driving"/>
    <lane id="-0_1" index="1" disallow="pedestrian tram rail_urban rail rail_electric rail_fast ship" speed="22.22" length="186.24" width="3.75" shape="1106.35,207.18 1105.60,207.81 1104.83,208.46 1104.04,209.13 1103.23,209.81 1102.41,210.51 1101.56,211.23 1100.70,211.96 1099.81,212.71 1098.91,213.48 1097.99,214.26 1097.05,215.06 1096.10,215.88 1095.12,216.71 1094.13,217.56 1093.12,218.42 1092.10,219.30 1091.05,220.20 1089.99,221.11 1088.91,222.03 1087.82,222.98 1086.70,223.93 1085.57,224.90 1084.43,225.89 1083.26,226.89 1082.08,227.91 1080.89,228.94 1079.67,229.99 1078.44,231.05 1077.20,232.12 1075.94,233.21 1074.66,234.32 1073.36,235.44 1072.06,236.57 1070.73,237.71 1069.39,238.87 1068.03,240.05 1066.66,241.23 1065.28,242.43 1063.88,243.65 1062.46,244.88 1061.03,246.12 1059.58,247.37 1058.12,248.64 1056.65,249.92 1055.16,251.21 1053.65,252.51 1052.14,253.83 1050.60,255.16 1049.06,256.50 1047.50,257.86 1045.92,259.23 1044.33,260.61 1042.73,262.00 1041.12,263.40 1039.49,264.81 1037.85,266.24 1036.19,267.68 1034.53,269.13 1032.85,270.59 1031.15,272.06 1029.45,273.54 1027.73,275.04 1026.00,276.54 1024.25,278.06 1022.50,279.59 1020.73,281.13 1018.95,282.67 1017.16,284.23 1015.35,285.80 1013.54,287.38 1011.71,288.97 1009.87,290.57 1008.02,292.18 1006.16,293.80 1004.28,295.43 1002.40,297.07 1000.51,298.72 998.60,300.38 996.68,302.04 994.75,303.72 992.82,305.40 990.87,307.10 988.91,308.80 986.94,310.52 984.96,312.24 982.97,313.97 980.97,315.71 978.96,317.45 976.94,319.21 974.91,320.97 972.87,322.74 970.83,324.52 968.77,326.31 966.70,328.11 965.56,329.10" type="driving"/>
    <lane id="-0_2" index="2" disallow="pedestrian tram rail_urban rail rail_electric rail_fast ship" speed="22.22" length="186.24" width="3.75" shape="1103.94,204.31 1103.19,204.94 1102.41,205.59 1101.62,206.26 1100.81,206.95 1099.98,207.65 1099.13,208.37 1098.27,209.10 1097.38,209.86 1096.48,210.62 1095.56,211.41 1094.62,212.21 1093.66,213.03 1092.69,213.86 1091.70,214.71 1090.68,215.57 1089.66,216.45 1088.61,217.35 1087.55,218.26 1086.47,219.19 1085.37,220.13 1084.26,221.09 1083.13,222.06 1081.98,223.05 1080.81,224.05 1079.63,225.07 1078.44,226.10 1077.22,227.15 1075.99,228.21 1074.75,229.29 1073.48,230.38 1072.21,231.48 1070.91,232.60 1069.60,233.73 1068.28,234.88 1066.94,236.04 1065.58,237.21 1064.21,238.40 1062.82,239.60 1061.42,240.81 1060.00,242.04 1058.57,243.28 1057.13,244.54 1055.67,245.80 1054.19,247.08 1052.70,248.38 1051.20,249.68 1049.68,251.00 1048.14,252.33 1046.60,253.67 1045.04,255.03 1043.46,256.39 1041.88,257.77 1040.27,259.17 1038.66,260.57 1037.03,261.98 1035.39,263.41 1033.73,264.85 1032.07,266.30 1030.39,267.76 1028.69,269.23 1026.99,270.71 1025.27,272.21 1023.54,273.71 1021.79,275.23 1020.04,276.76 1018.27,278.30 1016.49,279.84 1014.70,281.40 1012.89,282.97 1011.08,284.55 1009.25,286.14 1007.41,287.74 1005.56,289.35 1003.70,290.97 1001.82,292.60 999.94,294.24 998.04,295.89 996.14,297.55 994.22,299.21 992.29,300.89 990.35,302.58 988.41,304.27 986.45,305.97 984.48,307.69 982.50,309.41 980.51,311.14 978.51,312.88 976.50,314.62 974.48,316.38 972.45,318.14 970.41,319.91 968.37,321.69 966.31,323.48 964.24,325.28 963.10,326.27" type="driving"/>
  </edge>
  <edge id="-1" from="0" to="2.1" priority="1" type="driving" shape="958.85,327.48 957.42,328.72 955.98,329.98 954.53,331.23 953.08,332.49 951.63,333.75 950.17,335.02 948.71,336.29 947.25,337.56 945.78,338.83 944.31,340.11 942.83,341.39 941.35,342.68 939.86,343.97 938.38,345.26 936.88,346.55 935.39,347.85 933.89,349.15 932.39,350.45 930.88,351.76 929.37,353.07 927.86,354.38 926.34,355.70 924.82,357.02 923.30,358.34 921.77,359.66 920.24,360.99 918.71,362.32 917.17,363.65 915.63,364.98 914.09,366.32 912.54,367.66 911.00,369.00 909.44,370.35 907.89,371.69 906.33,373.04 904.77,374.39 903.20,375.75 901.64,377.10 900.07,378.46 898.49,379.83 896.92,381.19 895.34,382.55 893.76,383.92 892.17,385.29 890.59,386.66 889.00,388.04 887.41,389.42 885.81,390.79 884.21,392.17 882.61,393.56 881.01,394.94 879.41,396.33 877.80,397.71 876.19,399.10 874.58,400.50 872.97,401.89 871.35,403.28 869.73,404.68 868.11,406.08 866.49,407.48 864.87,408.88 863.24,410.29 861.61,411.69 859.98,413.10 858.35,414.50 856.71,415.91 855.07,417.32 853.44,418.74 851.80,420.15 850.15,421.56 848.51,422.98 846.86,424.40 845.22,425.81 843.57,427.23 841.92,428.65 840.26,430.08 838.61,431.50 836.96,432.92 835.30,434.35 833.64,435.77 831.98,437.20 830.32,438.63 828.66,440.06 826.99,441.49 825.33,442.92 823.66,444.35 821.99,445.78 820.32,447.21 818.65,448.65 816.98,450.08 815.31,451.51 813.64,452.95 811.96,454.38 810.29,455.82 808.61,457.26 806.94,458.69 805.26,460.13 803.58,461.57 801.90,463.01 800.22,464.45 798.54,465.88 796.86,467.32 795.17,468.76 793.49,470.20 791.81,471.64 790.12,473.08 788.44,474.52 786.75,475.96 785.07,477.40 783.38,478.84 781.69,480.28 780.01,481.72 778.32,483.16 776.63,484.60 774.94,486.04 773.26,487.48 771.57,488.92 769.88,490.36 768.19,491.80 766.50,493.23 764.81,494.67 763.12,496.11 761.44,497.55 759.75,498.98 758.06,500.42 756.37,501.85 754.68,503.29 752.99,504.72 751.31,506.16 749.62,507.59 747.93,509.02 746.25,510.45 744.56,511.88 742.87,513.31 741.19,514.74 739.50,516.17 737.82,517.60 736.13,519.03 734.45,520.45 732.77,521.88 731.08,523.30 729.40,524.72 727.72,526.14 726.04,527.57 724.36,528.98 722.68,530.40 721.01,531.82 719.33,533.24 717.65,534.65 715.98,536.06 714.30,537.47 712.63,538.88 710.96,540.29 709.29,541.70 707.62,543.11 705.95,544.51 704.28,545.91 702.62,547.32 700.95,548.72 699.29,550.11 697.63,551.51 695.97,552.91 694.31,554.30 692.65,555.69 690.99,557.08 689.34,558.47 687.68,559.85 686.03,561.24 684.38,562.62 682.73,564.00 681.08,565.38 679.44,566.75 677.80,568.13 676.15,569.50 674.51,570.87 672.88,572.24 671.24,573.60 669.61,574.96 667.97,576.33 666.34,577.68 664.71,579.04 663.09,580.39 661.46,581.75 659.84,583.09 658.22,584.44 656.60,585.79 654.99,587.13 653.38,588.47 651.76,589.80 650.16,591.14 648.55,592.47 646.95,593.80 645.35,595.12 643.75,596.45 642.15,597.77 640.56,599.08 638.96,600.40 637.38,601.71 635.79,603.02 634.21,604.33 632.63,605.63 631.05,606.93 629.47,608.23 627.90,609.52 626.33,610.81 624.76,612.10 623.20,613.38 621.64,614.66 620.08,615.94 618.53,617.22 616.98,618.49 615.43,619.76 613.88,621.02 612.34,622.28 610.80,623.54 609.27,624.79 607.73,626.05 606.20,627.29 604.68,628.54 603.16,629.78 601.64,631.01 600.12,632.25 598.61,633.48 597.10,634.70 595.60,635.92 594.09,637.14 592.60,638.36 591.10,639.57 589.61,640.77 588.12,641.98 586.64,643.17 585.16,644.37 583.69,645.56 582.21,646.75 580.75,647.93 579.28,649.11 577.82,650.28 576.37,651.45 574.91,652.62 573.47,653.78 572.02,654.94 570.58,656.09 569.15,657.24 567.72,658.38 566.29,659.52 564.87,660.66 563.45,661.79 562.03,662.91 560.62,664.04 559.22,665.15 557.82,666.27 556.42,667.37 555.03,668.48 553.64,669.58 552.26,670.67 550.88,671.76 549.51,672.84 548.14,673.92 546.77,675.00 545.41,676.07 544.06,677.13 542.71,678.19 541.36,679.25 540.02,680.30 538.69,681.34 537.36,682.38 536.03,683.42 534.71,684.44 533.40,685.47 532.09,686.49 530.78,687.50 529.48,688.51 528.19,689.51 526.90,690.51 525.62,691.50 524.34,692.49 523.06,693.47 521.80,694.45 520.53,695.42 519.28,696.38 518.02,697.34 516.78,698.30 515.54,699.24 514.30,700.19 513.07,701.12 511.85,702.05 510.63,702.98 509.42,703.90 508.21,704.81 507.01,705.72 505.82,706.62 504.63,707.52 503.44,708.41 502.27,709.29 501.09,710.17 499.93,711.04 498.77,711.90 497.62,712.76 496.47,713.62 495.33,714.46 494.19,715.30 493.06,716.14 491.94,716.97 490.82,717.79 489.71,718.60 488.61,719.41 487.51,720.22 486.42,721.01 485.34,721.80">