<?xml version='1.0' encoding='UTF-8'?>
<!-- generated on 2022-09-25 13:31:02 by Eclipse SUMO netconvert Version 1.13.0
<configuration xmlns:xsi="http://www.w3.org/2001/XMLSchema-instance" xsi:noNamespaceSchemaLocation="http://sumo.dlr.de/xsd/netconvertConfiguration.xsd">

    <input>
        <opendrive-files value="map_new_new\20\34\34.xodr"/>
    </input>

    <output>
        <output-file value="C:\Users\LinGe\AppData\Local\Temp\tmp1tlisydh\34.net.xml"/>
    </output>

    <processing>
        <geometry.max-grade.fix value="false"/>
    </processing>

    <tls_building>
        <tls.left-green.time value="0"/>
    </tls_building>

    <junctions>
        <rectangular-lane-cut value="true"/>
    </junctions>

    <report>
        <aggregate-warnings value="5"/>
    </report>

</configuration>
-->
<net xmlns:xsi="http://www.w3.org/2001/XMLSchema-instance" version="1.9" junctionCornerDetail="5" rectangularLaneCut="true" limitTurnSpeed="5.50" xsi:noNamespaceSchemaLocation="http://sumo.dlr.de/xsd/net_file.xsd">
  <location netOffset="1.56,101.26" convBoundary="0.00,0.00,1102.73,1302.51" origBoundary="-1.56,-101.26,1101.18,1201.26" projParameter="!"/>
  <type id="bidirectional" priority="1" speed="1.39" disallow="pedestrian tram rail_urban rail rail_electric rail_fast ship" width="3.65"/>
  <type id="border" priority="0" speed="1.39" disallow="all" discard="1" width="0.10"/>
  <type id="driving" priority="1" speed="13.89" disallow="pedestrian tram rail_urban rail rail_electric rail_fast ship" width="3.65"/>
  <type id="entry" priority="1" speed="22.22" disallow="pedestrian tram rail_urban rail rail_electric rail_fast ship" width="3.65"/>
  <type id="exit" priority="1" speed="22.22" disallow="pedestrian tram rail_urban rail rail_electric rail_fast ship" width="3.65"/>
  <type id="median" priority="0" speed="1.39" disallow="all" discard="1" width="0.10"/>
  <type id="mwyEntry" priority="1" speed="22.22" allow="private emergency authority army vip passenger hov taxi bus coach delivery truck trailer motorcycle evehicle custom1 custom2" width="3.65"/>
  <type id="mwyExit" priority="1" speed="22.22" allow="private emergency authority army vip passenger hov taxi bus coach delivery truck trailer motorcycle evehicle custom1 custom2" width="3.65"/>
  <type id="none" priority="0" speed="1.39" disallow="all" discard="1" width="1.00"/>
  <type id="offRamp" priority="1" speed="22.22" allow="private emergency authority army vip passenger hov taxi bus coach delivery truck trailer motorcycle evehicle custom1 custom2" width="3.65"/>
  <type id="onRamp" priority="1" speed="22.22" allow="private emergency authority army vip passenger hov taxi bus coach delivery truck trailer motorcycle evehicle custom1 custom2" width="3.65"/>
  <type id="parking" priority="1" speed="1.39" disallow="pedestrian tram rail_urban rail rail_electric rail_fast ship" width="2.50"/>
  <type id="rail" priority="3" speed="33.33" allow="rail_urban rail rail_electric rail_fast" width="3.65"/>
  <type id="restricted" priority="0" speed="13.89" disallow="all" width="3.65"/>
  <type id="roadWorks" priority="0" speed="1.39" allow="authority" width="3.65"/>
  <type id="shoulder" priority="0" speed="1.39" disallow="all" discard="1" width="1.00"/>
  <type id="special1" priority="1" speed="22.22" allow="custom1" discard="1" width="3.65"/>
  <type id="special2" priority="1" speed="22.22" allow="custom2" discard="1" width="3.65"/>
  <type id="special3" priority="1" speed="22.22" allow="custom1 custom2" discard="1" width="3.65"/>
  <type id="stop" priority="1" speed="13.89" disallow="pedestrian tram rail_urban rail rail_electric rail_fast ship" width="3.65"/>
  <type id="tram" priority="2" speed="13.89" allow="tram" width="3.65"/>
  <edge id=":0_0" function="internal">
    <lane id=":0_0_0" index="0" disallow="pedestrian tram rail_urban rail rail_electric rail_fast ship" speed="16.67" length="37.12" width="3.75" shape="991.74,278.63 982.16,284.82,0.06 973.48,291.36,0.12 966.54,297.13,0.16 962.22,301.02,0.19"/>
  </edge>
  <edge id=":0_1" function="internal">
    <lane id=":0_1_0" index="0" disallow="pedestrian tram rail_urban rail rail_electric rail_fast ship" speed="22.22" length="37.29" width="3.75" shape="991.74,278.63 959.47,297.32"/>
    <lane id=":0_1_1" index="1" disallow="pedestrian tram rail_urban rail rail_electric rail_fast ship" speed="22.22" length="37.29" width="3.75" shape="989.87,275.39 957.59,294.08"/>
    <lane id=":0_1_2" index="2" disallow="pedestrian tram rail_urban rail rail_electric rail_fast ship" speed="22.22" length="37.29" width="3.75" shape="987.99,272.14 955.71,290.83"/>
  </edge>
  <edge id=":1_0" function="internal">
    <lane id=":1_0_0" index="0" disallow="pedestrian tram rail_urban rail rail_electric rail_fast ship" speed="16.67" length="44.73" width="3.75" shape="114.69,885.85 123.71,877.06 132.88,867.15 140.52,858.37 144.96,852.96"/>
  </edge>
  <edge id=":1_1" function="internal">
    <lane id=":1_1_0" index="0" disallow="pedestrian tram rail_urban rail rail_electric rail_fast ship" speed="22.22" length="44.90" width="3.75" shape="114.69,885.85 148.23,856.00"/>
    <lane id=":1_1_1" index="1" disallow="pedestrian tram rail_urban rail rail_electric rail_fast ship" speed="22.22" length="44.90" width="3.75" shape="117.18,888.65 150.72,858.80"/>
    <lane id=":1_1_2" index="2" disallow="pedestrian tram rail_urban rail rail_electric rail_fast ship" speed="22.22" length="44.90" width="3.75" shape="119.68,891.45 153.21,861.60"/>
  </edge>
  <edge id=":10_0" function="internal">
    <lane id=":10_0_0" index="0" disallow="pedestrian tram rail_urban rail rail_electric rail_fast ship" speed="11.11" length="3.00" width="3.75" shape="850.18,443.87,4.92 848.54,446.37,5.01"/>
  </edge>
  <edge id=":10_1" function="internal">
    <lane id=":10_1_0" index="0" disallow="pedestrian tram rail_urban rail rail_electric rail_fast ship" speed="11.11" length="3.00" width="3.75" shape="850.18,443.87,4.92 848.53,446.37,4.97"/>
  </edge>
  <edge id=":11_0" function="internal">
    <lane id=":11_0_0" index="0" disallow="pedestrian tram rail_urban rail rail_electric rail_fast ship" speed="16.67" length="20.93" width="3.75" shape="832.14,1043.18,20.00 832.91,1047.11,20.00 834.18,1051.55,20.00 836.60,1056.47,20.00 840.80,1061.86,20.00"/>
  </edge>
  <edge id=":11_1" function="internal">
    <lane id=":11_1_0" index="0" disallow="pedestrian tram rail_urban rail rail_electric rail_fast ship" speed="22.22" length="19.33" width="3.75" shape="827.55,1047.79,20.00 840.80,1061.86,20.00"/>
    <lane id=":11_1_1" index="1" disallow="pedestrian tram rail_urban rail rail_electric rail_fast ship" speed="22.22" length="19.33" width="3.75" shape="824.82,1050.36,20.00 838.07,1064.43,20.00"/>
    <lane id=":11_1_2" index="2" disallow="pedestrian tram rail_urban rail rail_electric rail_fast ship" speed="22.22" length="19.33" width="3.75" shape="822.09,1052.93,20.00 835.34,1067.00,20.00"/>
  </edge>
  <edge id=":11.10_0" function="internal">
    <lane id=":11.10_0_0" index="0" disallow="pedestrian tram rail_urban rail rail_electric rail_fast ship" speed="22.22" length="0.30" width="3.75" shape="491.80,676.78,20.00 491.99,677.01,20.00"/>
    <lane id=":11.10_0_1" index="1" disallow="pedestrian tram rail_urban rail rail_electric rail_fast ship" speed="22.22" length="0.30" width="3.75" shape="488.89,679.14,20.00 489.07,679.37,20.00"/>
    <lane id=":11.10_0_2" index="2" disallow="pedestrian tram rail_urban rail rail_electric rail_fast ship" speed="22.22" length="0.30" width="3.75" shape="485.97,681.49,20.00 486.16,681.73,20.00"/>
  </edge>
  <edge id=":12_0" function="internal">
    <lane id=":12_0_0" index="0" disallow="pedestrian tram rail_urban rail rail_electric rail_fast ship" speed="9.82" length="14.71" width="3.75" shape="189.67,862.67,0.00 185.13,860.98,0.00 181.28,860.31,0.00 178.14,860.66,0.00 175.68,862.02"/>
  </edge>
  <edge id=":12_1" function="internal">
    <lane id=":12_1_0" index="0" disallow="pedestrian tram rail_urban rail rail_electric rail_fast ship" speed="22.22" length="11.72" width="3.75" shape="184.45,854.24 175.68,862.02"/>
    <lane id=":12_1_1" index="1" disallow="pedestrian tram rail_urban rail rail_electric rail_fast ship" speed="22.22" length="11.72" width="3.75" shape="181.97,851.43 173.20,859.21"/>
    <lane id=":12_1_2" index="2" disallow="pedestrian tram rail_urban rail rail_electric rail_fast ship" speed="22.22" length="11.72" width="3.75" shape="179.48,848.63 170.71,856.41"/>
  </edge>
  <edge id=":13_0" function="internal">
    <lane id=":13_0_0" index="0" disallow="pedestrian tram rail_urban rail rail_electric rail_fast ship" speed="16.67" length="77.77" width="3.75" shape="262.80,408.57,19.82 256.62,398.11,19.85 244.69,378.46,19.90 231.61,357.32,19.96 221.95,342.40,20.00"/>
  </edge>
  <edge id=":13_1" function="internal">
    <lane id=":13_1_0" index="0" disallow="pedestrian tram rail_urban rail rail_electric rail_fast ship" speed="22.22" length="77.45" width="3.75" shape="266.18,406.01,20.00 221.95,342.40,20.00"/>
    <lane id=":13_1_1" index="1" disallow="pedestrian tram rail_urban rail rail_electric rail_fast ship" speed="22.22" length="77.45" width="3.75" shape="269.25,403.86,20.00 225.04,340.27,20.00"/>
    <lane id=":13_1_2" index="2" disallow="pedestrian tram rail_urban rail rail_electric rail_fast ship" speed="22.22" length="77.45" width="3.75" shape="272.33,401.71,20.00 228.12,338.13,20.00"/>
  </edge>
  <edge id=":16.15_0" function="internal">
    <lane id=":16.15_0_0" index="0" disallow="pedestrian tram rail_urban rail rail_electric rail_fast ship" speed="22.22" length="0.30" width="3.75" shape="474.29,691.31,20.00 474.10,691.08,20.00"/>
    <lane id=":16.15_0_1" index="1" disallow="pedestrian tram rail_urban rail rail_electric rail_fast ship" speed="22.22" length="0.30" width="3.75" shape="477.21,688.95,20.00 477.02,688.72,20.00"/>
    <lane id=":16.15_0_2" index="2" disallow="pedestrian tram rail_urban rail rail_electric rail_fast ship" speed="22.22" length="0.30" width="3.75" shape="480.13,686.60,20.00 479.94,686.37,20.00"/>
  </edge>
  <edge id=":2_0" function="internal">
    <lane id=":2_0_0" index="0" disallow="pedestrian tram rail_urban rail rail_electric rail_fast ship" speed="16.67" length="86.57" width="3.75" shape="90.66,110.97,20.00 101.93,126.45,20.00 118.72,148.71,20.00 134.53,169.36,20.00 142.86,180.02,20.00"/>
  </edge>
  <edge id=":2_1" function="internal">
    <lane id=":2_1_0" index="0" disallow="pedestrian tram rail_urban rail rail_electric rail_fast ship" speed="22.22" length="86.67" width="3.75" shape="90.66,110.97,20.00 139.56,182.52,20.00"/>
    <lane id=":2_1_1" index="1" disallow="pedestrian tram rail_urban rail rail_electric rail_fast ship" speed="22.22" length="86.67" width="3.75" shape="87.56,113.08,20.00 136.46,184.64,20.00"/>
    <lane id=":2_1_2" index="2" disallow="pedestrian tram rail_urban rail rail_electric rail_fast ship" speed="22.22" length="86.67" width="3.75" shape="84.47,115.20,20.00 133.37,186.75,20.00"/>
  </edge>
  <edge id=":2.1_0" function="internal">
    <lane id=":2.1_0_0" index="0" disallow="pedestrian tram rail_urban rail rail_electric rail_fast ship" speed="22.22" length="0.30" width="3.75" shape="536.56,559.87 536.32,560.05"/>
    <lane id=":2.1_0_1" index="1" disallow="pedestrian tram rail_urban rail rail_electric rail_fast ship" speed="22.22" length="0.30" width="3.75" shape="534.35,556.84 534.11,557.02"/>
    <lane id=":2.1_0_2" index="2" disallow="pedestrian tram rail_urban rail rail_electric rail_fast ship" speed="22.22" length="0.30" width="3.75" shape="532.15,553.81 531.90,553.99"/>
  </edge>
  <edge id=":20.19_0" function="internal">
    <lane id=":20.19_0_0" index="0" disallow="pedestrian tram rail_urban rail rail_electric rail_fast ship" speed="13.89" length="0.30" width="3.75" shape="632.39,1107.00,11.99 632.12,1106.88,11.98"/>
  </edge>
  <edge id=":22.21_0" function="internal">
    <lane id=":22.21_0_0" index="0" disallow="pedestrian tram rail_urban rail rail_electric rail_fast ship" speed="11.11" length="0.30" width="3.75" shape="231.50,654.46,6.54 231.49,654.16,6.55"/>
  </edge>
  <edge id=":26.25_0" function="internal">
    <lane id=":26.25_0_0" index="0" disallow="pedestrian tram rail_urban rail rail_electric rail_fast ship" speed="11.11" length="0.30" width="3.75" shape="522.96,410.29,9.18 523.25,410.34,9.17"/>
  </edge>
  <edge id=":29.28_0" function="internal">
    <lane id=":29.28_0_0" index="0" disallow="pedestrian tram rail_urban rail rail_electric rail_fast ship" speed="11.11" length="0.30" width="3.75" shape="745.16,640.46,10.22 745.10,640.75,10.23"/>
  </edge>
  <edge id=":3_0" function="internal">
    <lane id=":3_0_0" index="0" disallow="pedestrian tram rail_urban rail rail_electric rail_fast ship" speed="18.06" length="40.50" width="3.75" shape="968.19,1229.43,20.00 959.58,1221.17,19.96 950.39,1213.38,19.93 942.35,1207.13,19.90 937.20,1203.45,19.88"/>
  </edge>
  <edge id=":3_1" function="internal">
    <lane id=":3_1_0" index="0" disallow="pedestrian tram rail_urban rail rail_electric rail_fast ship" speed="22.22" length="40.72" width="3.75" shape="968.19,1229.43,20.00 940.16,1199.90,20.00"/>
    <lane id=":3_1_1" index="1" disallow="pedestrian tram rail_urban rail rail_electric rail_fast ship" speed="22.22" length="40.72" width="3.75" shape="970.91,1226.85,20.00 942.88,1197.32,20.00"/>
    <lane id=":3_1_2" index="2" disallow="pedestrian tram rail_urban rail rail_electric rail_fast ship" speed="22.22" length="40.72" width="3.75" shape="973.63,1224.27,20.00 945.60,1194.74,20.00"/>
  </edge>
  <edge id=":31.30_0" function="internal">
    <lane id=":31.30_0_0" index="0" disallow="pedestrian tram rail_urban rail rail_electric rail_fast ship" speed="11.11" length="0.29" width="3.75" shape="749.24,187.76,13.32 749.49,187.92,13.32"/>
  </edge>
  <edge id=":33.32_0" function="internal">
    <lane id=":33.32_0_0" index="0" disallow="pedestrian tram rail_urban rail rail_electric rail_fast ship" speed="19.44" length="0.30" width="3.75" shape="1025.44,1010.40,6.09 1025.30,1010.66,6.09"/>
  </edge>
  <edge id=":35.34_0" function="internal">
    <lane id=":35.34_0_0" index="0" disallow="pedestrian tram rail_urban rail rail_electric rail_fast ship" speed="11.11" length="0.30" width="3.75" shape="442.31,841.90,12.60 442.01,841.85,12.61"/>
  </edge>
  <edge id=":4_0" function="internal">
    <lane id=":4_0_0" index="0" disallow="pedestrian tram rail_urban rail rail_electric rail_fast ship" speed="18.06" length="8.26" width="3.75" shape="177.39,860.84,0.00 175.40,862.25,0.00 174.10,863.32,0.00 172.87,864.46,0.00 171.06,866.12"/>
  </edge>
  <edge id=":4_1" function="internal">
    <lane id=":4_1_0" index="0" disallow="pedestrian tram rail_urban rail rail_electric rail_fast ship" speed="22.22" length="5.98" width="3.75" shape="175.54,862.15 171.06,866.12"/>
    <lane id=":4_1_1" index="1" disallow="pedestrian tram rail_urban rail rail_electric rail_fast ship" speed="22.22" length="5.98" width="3.75" shape="173.05,859.34 168.57,863.32"/>
    <lane id=":4_1_2" index="2" disallow="pedestrian tram rail_urban rail rail_electric rail_fast ship" speed="22.22" length="5.98" width="3.75" shape="170.56,856.54 166.08,860.51"/>
  </edge>
  <edge id=":5_0" function="internal">
    <lane id=":5_0_0" index="0" disallow="pedestrian tram rail_urban rail rail_electric rail_fast ship" speed="16.67" length="94.50" width="3.75" shape="134.82,223.18,20.00 127.19,210.53,20.00 112.14,186.05,20.00 95.96,160.07,20.00 84.94,142.92,20.00"/>
  </edge>
  <edge id=":5_1" function="internal">
    <lane id=":5_1_0" index="0" disallow="pedestrian tram rail_urban rail rail_electric rail_fast ship" speed="22.22" length="94.25" width="3.75" shape="138.16,220.71,20.00 84.94,142.92,20.00"/>
    <lane id=":5_1_1" index="1" disallow="pedestrian tram rail_urban rail rail_electric rail_fast ship" speed="22.22" length="94.25" width="3.75" shape="141.25,218.59,20.00 88.04,140.80,20.00"/>
    <lane id=":5_1_2" index="2" disallow="pedestrian tram rail_urban rail rail_electric rail_fast ship" speed="22.22" length="94.25" width="3.75" shape="144.34,216.47,20.00 91.14,138.69,20.00"/>
  </edge>
  <edge id=":6_0" function="internal">
    <lane id=":6_0_0" index="0" disallow="pedestrian tram rail_urban rail rail_electric rail_fast ship" speed="11.11" length="3.00" width="3.75" shape="231.44,652.65,6.60 231.32,649.65,6.70"/>
  </edge>
  <edge id=":6_1" function="internal">
    <lane id=":6_1_0" index="0" disallow="pedestrian tram rail_urban rail rail_electric rail_fast ship" speed="11.11" length="3.00" width="3.75" shape="231.44,652.65,6.60 231.33,649.65,6.65"/>
  </edge>
  <edge id=":7_0" function="internal">
    <lane id=":7_0_0" index="0" disallow="pedestrian tram rail_urban rail rail_electric rail_fast ship" speed="16.67" length="96.36" width="3.75" shape="869.30,318.80,0.00 954.56,273.90"/>
  </edge>
  <edge id=":7_1" function="internal">
    <lane id=":7_1_0" index="0" disallow="pedestrian tram rail_urban rail rail_electric rail_fast ship" speed="22.22" length="96.11" width="3.75" shape="871.49,322.28 954.56,273.90"/>
    <lane id=":7_1_1" index="1" disallow="pedestrian tram rail_urban rail rail_electric rail_fast ship" speed="22.22" length="96.11" width="3.75" shape="873.38,325.52 956.44,277.15"/>
    <lane id=":7_1_2" index="2" disallow="pedestrian tram rail_urban rail rail_electric rail_fast ship" speed="22.22" length="96.11" width="3.75" shape="875.28,328.75 958.32,280.39"/>
  </edge>
  <edge id=":7.6_0" function="internal">
    <lane id=":7.6_0_0" index="0" disallow="pedestrian tram rail_urban rail rail_electric rail_fast ship" speed="22.22" length="0.30" width="3.75" shape="522.93,541.65 523.18,541.47"/>
    <lane id=":7.6_0_1" index="1" disallow="pedestrian tram rail_urban rail rail_electric rail_fast ship" speed="22.22" length="0.30" width="3.75" shape="525.14,544.68 525.38,544.51"/>
    <lane id=":7.6_0_2" index="2" disallow="pedestrian tram rail_urban rail rail_electric rail_fast ship" speed="22.22" length="0.30" width="3.75" shape="527.35,547.72 527.59,547.54"/>
  </edge>
  <edge id=":8_0" function="internal">
    <lane id=":8_0_0" index="0" disallow="pedestrian tram rail_urban rail rail_electric rail_fast ship" speed="11.11" length="3.00" width="3.75" shape="429.39,384.11,12.04 432.21,385.14,11.96"/>
  </edge>
  <edge id=":8_1" function="internal">
    <lane id=":8_1_0" index="0" disallow="pedestrian tram rail_urban rail rail_electric rail_fast ship" speed="15.28" length="3.01" width="3.75" shape="429.39,384.11,12.04 432.22,385.15,12.00"/>
  </edge>
  <edge id=":9_0" function="internal">
    <lane id=":9_0_0" index="0" disallow="pedestrian tram rail_urban rail rail_electric rail_fast ship" speed="16.67" length="62.94" width="3.75" shape="778.06,988.61,20.00 783.99,996.45,20.00 795.11,1010.48,20.00 807.63,1025.77,20.00 817.78,1037.42,20.00"/>
  </edge>
  <edge id=":9_1" function="internal">
    <lane id=":9_1_0" index="0" disallow="pedestrian tram rail_urban rail rail_electric rail_fast ship" speed="22.22" length="62.53" width="3.75" shape="775.00,991.83,20.00 817.78,1037.42,20.00"/>
    <lane id=":9_1_1" index="1" disallow="pedestrian tram rail_urban rail rail_electric rail_fast ship" speed="22.22" length="62.53" width="3.75" shape="772.26,994.39,20.00 815.05,1039.99,20.00"/>
    <lane id=":9_1_2" index="2" disallow="pedestrian tram rail_urban rail rail_electric rail_fast ship" speed="22.22" length="62.53" width="3.75" shape="769.52,996.95,20.00 812.32,1042.55,20.00"/>
  </edge>
  <edge id="-0" from="0.begin" to="0" priority="1" type="driving" shape="1102.73,202.87 1101.70,203.51 1100.64,204.15 1099.56,204.81 1098.45,205.47 1097.33,206.16 1096.18,206.85 1095.01,207.55 1093.82,208.27 1092.60,208.99 1091.37,209.73 1090.11,210.48 1088.83,211.25 1087.54,212.02 1086.21,212.80 1084.87,213.60 1083.51,214.41 1082.13,215.22 1080.73,216.05 1079.30,216.89 1077.86,217.74 1076.40,218.61 1074.92,219.48 1073.41,220.36 1071.89,221.25 1070.35,222.16 1068.79,223.07 1067.21,224.00 1065.62,224.93 1064.00,225.88 1062.37,226.83 1060.71,227.80 1059.04,228.77 1057.35,229.76 1055.64,230.76 1053.92,231.76 1052.18,232.78 1050.42,233.80 1048.64,234.83 1046.84,235.88 1045.03,236.93 1043.21,237.99 1041.36,239.06 1039.50,240.14 1037.62,241.23 1035.73,242.33 1033.82,243.44 1031.89,244.56 1029.95,245.68 1027.99,246.82 1026.02,247.96 1024.03,249.11 1022.03,250.27 1020.01,251.44 1017.98,252.62 1015.93,253.80 1013.87,255.00 1011.80,256.20 1009.71,257.41 1007.60,258.62 1005.48,259.85 1003.35,261.08 1001.21,262.33 999.05,263.57 996.88,264.83 994.69,266.10 992.49,267.37 990.28,268.65 988.06,269.93 985.82,271.23 983.57,272.53">
    <lane id="-0_0" index="0" disallow="pedestrian tram rail_urban rail rail_electric rail_fast ship" speed="22.22" length="134.14" width="3.75" shape="1107.62,210.88 1106.58,211.51 1105.51,212.16 1104.42,212.82 1103.31,213.50 1102.17,214.18 1101.02,214.88 1099.84,215.59 1098.64,216.31 1097.42,217.04 1096.18,217.78 1094.92,218.53 1093.63,219.30 1092.33,220.08 1091.00,220.86 1089.66,221.66 1088.29,222.47 1086.90,223.29 1085.50,224.12 1084.07,224.97 1082.62,225.82 1081.16,226.68 1079.67,227.56 1078.16,228.44 1076.64,229.34 1075.10,230.25 1073.53,231.16 1071.95,232.09 1070.35,233.02 1068.73,233.97 1067.09,234.93 1065.44,235.90 1063.77,236.87 1062.07,237.86 1060.36,238.86 1058.64,239.86 1056.89,240.88 1055.13,241.90 1053.35,242.94 1051.56,243.98 1049.74,245.04 1047.91,246.10 1046.07,247.17 1044.21,248.25 1042.33,249.34 1040.43,250.44 1038.52,251.55 1036.59,252.67 1034.65,253.79 1032.69,254.93 1030.72,256.07 1028.73,257.22 1026.73,258.38 1024.71,259.55 1022.68,260.73 1020.63,261.92 1018.57,263.11 1016.49,264.31 1014.40,265.52 1012.30,266.74 1010.18,267.96 1008.05,269.20 1005.90,270.44 1003.74,271.69 1001.57,272.95 999.39,274.21 997.19,275.48 994.98,276.76 992.75,278.05 991.74,278.63" type="driving"/>
    <lane id="-0_1" index="1" disallow="pedestrian tram rail_urban rail rail_electric rail_fast ship" speed="22.22" length="134.14" width="3.75" shape="1105.66,207.68 1104.62,208.31 1103.56,208.96 1102.47,209.62 1101.37,210.29 1100.23,210.97 1099.08,211.67 1097.91,212.37 1096.71,213.09 1095.49,213.82 1094.25,214.56 1092.99,215.31 1091.71,216.08 1090.41,216.85 1089.09,217.64 1087.74,218.44 1086.38,219.25 1084.99,220.07 1083.59,220.90 1082.16,221.74 1080.72,222.59 1079.25,223.45 1077.77,224.33 1076.26,225.21 1074.74,226.11 1073.20,227.01 1071.64,227.93 1070.06,228.85 1068.46,229.79 1066.84,230.73 1065.20,231.69 1063.55,232.66 1061.88,233.63 1060.18,234.62 1058.48,235.62 1056.75,236.62 1055.01,237.64 1053.25,238.66 1051.47,239.70 1049.67,240.74 1047.86,241.79 1046.03,242.86 1044.19,243.93 1042.32,245.01 1040.44,246.10 1038.55,247.20 1036.64,248.31 1034.71,249.42 1032.77,250.55 1030.81,251.68 1028.84,252.83 1026.85,253.98 1024.85,255.14 1022.83,256.31 1020.80,257.48 1018.75,258.67 1016.69,259.86 1014.61,261.07 1012.52,262.28 1010.42,263.49 1008.30,264.72 1006.17,265.95 1004.02,267.19 1001.86,268.44 999.69,269.70 997.51,270.96 995.31,272.24 993.10,273.51 990.88,274.80 989.87,275.39" type="driving"/>
    <lane id="-0_2" index="2" disallow="pedestrian tram rail_urban rail rail_electric rail_fast ship" speed="22.22" length="134.14" width="3.75" shape="1103.71,204.47 1102.67,205.11 1101.61,205.75 1100.53,206.41 1099.42,207.08 1098.30,207.76 1097.15,208.45 1095.98,209.16 1094.78,209.87 1093.57,210.60 1092.33,211.34 1091.07,212.09 1089.79,212.86 1088.49,213.63 1087.17,214.42 1085.83,215.21 1084.47,216.02 1083.08,216.84 1081.68,217.67 1080.26,218.51 1078.81,219.36 1077.35,220.22 1075.87,221.09 1074.36,221.98 1072.84,222.87 1071.30,223.78 1069.74,224.69 1068.16,225.62 1066.56,226.55 1064.95,227.50 1063.31,228.45 1061.66,229.42 1059.99,230.39 1058.30,231.38 1056.59,232.38 1054.86,233.38 1053.12,234.40 1051.36,235.42 1049.58,236.45 1047.79,237.50 1045.98,238.55 1044.15,239.61 1042.30,240.69 1040.44,241.77 1038.56,242.86 1036.67,243.95 1034.76,245.06 1032.83,246.18 1030.89,247.30 1028.93,248.44 1026.96,249.58 1024.97,250.73 1022.97,251.89 1020.95,253.06 1018.92,254.24 1016.87,255.42 1014.81,256.62 1012.73,257.82 1010.64,259.03 1008.54,260.25 1006.42,261.47 1004.29,262.71 1002.15,263.95 999.99,265.20 997.81,266.45 995.63,267.72 993.43,268.99 991.22,270.27 989.00,271.56 987.99,272.14" type="driving"/>
  </edge>
  <edge id="-1" from="0" to="2.1" priority="1" type="driving" shape="983.57,272.53 982.05,273.41 980.52,274.29 978.99,275.18 977.45,276.07 975.91,276.97 974.36,277.86 972.80,278.76 971.24,279.67 969.68,280.57 968.11,281.48 966.53,282.39 964.95,283.31 963.37,284.23 961.78,285.15 960.18,286.07 958.58,287.00 956.98,287.93 955.37,288.86 953.76,289.80 952.14,290.74 950.51,291.68 948.89,292.62 947.26,293.57 945.62,294.52 943.98,295.47 942.33,296.43 940.68,297.39 939.03,298.35 937.37,299.31 935.71,300.28 934.04,301.24 932.37,302.21 930.70,303.19 929.02,304.16 927.34,305.14 925.65,306.12 923.96,307.11 922.27,308.09 920.57,309.08 918.87,310.07 917.16,311.06 915.46,312.06 913.74,313.06 912.03,314.06 910.31,315.06 908.59,316.06 906.86,317.07 905.13,318.08 903.40,319.09 901.67,320.10 899.93,321.12 898.19,322.13 896.44,323.15 894.69,324.17 892.94,325.20 891.19,326.22 889.43,327.25 887.67,328.28 885.91,329.31 884.15,330.34 882.38,331.38 880.61,332.42 878.84,333.46 877.06,334.50 875.28,335.54 873.50,336.58 871.72,337.63 869.93,338.68 868.15,339.73 866.36,340.78 864.57,341.83 862.77,342.89 860.98,343.94 859.18,345.00 857.38,346.06 855.57,347.12 853.77,348.19 851.96,349.25 850.16,350.32 848.35,351.38 846.54,352.45 844.72,353.52 842.91,354.59 841.09,355.67 839.27,356.74 837.45,357.82 835.63,358.89 833.81,359.97 831.99,361.05 830.16,362.13 828.34,363.21 826.51,364.30 824.68,365.38 822.85,366.47 821.02,367.56 819.19,368.64 817.36,369.73 815.52,370.82 813.69,371.91 811.85,373.01 810.02,374.10 808.18,375.19 806.34,376.29 804.50,377.39 802.66,378.48 800.82,379.58 798.98,380.68 797.14,381.78 795.30,382.88 793.46,383.98 791.62,385.08 789.78,386.19 787.94,387.29 786.09,388.40 784.25,389.50 782.41,390.61 780.57,391.71 778.72,392.82 776.88,393.93 775.04,395.04 773.20,396.15 771.35,397.26 769.51,398.37 767.67,399.48 765.83,400.59 763.99,401.70 762.15,402.81 760.31,403.92 758.47,405.04 756.63,406.15 754.79,407.26 752.96,408.38 751.12,409.49 749.28,410.61 747.45,411.72 745.61,412.83 743.78,413.95 741.95,415.07 740.12,416.18 738.29,417.30 736.46,418.41 734.63,419.53 732.80,420.64 730.98,421.76 729.15,422.88 727.33,423.99 725.51,425.11 723.69,426.22 721.87,427.34 720.05,428.46 718.23,429.57 716.42,430.69 714.61,431.80 712.80,432.92 710.99,434.03 709.18,435.15 707.38,436.26 705.57,437.38 703.77,438.49 701.97,439.61 700.18,440.72 698.38,441.83 696.59,442.94 694.80,444.06 693.01,445.17 691.22,446.28 689.44,447.39 687.65,448.50 685.88,449.61 684.10,450.72 682.32,451.83 680.55,452.94 678.78,454.05 677.02,455.16 675.25,456.26 673.49,457.37 671.73,458.47 669.98,459.58 668.23,460.68 666.48,461.79 664.73,462.89 662.99,463.99 661.25,465.09 659.51,466.19 657.78,467.29 656.05,468.39 654.32,469.49 652.59,470.58 650.87,471.68 649.16,472.77 647.44,473.87 645.73,474.96 644.02,476.05 642.32,477.14 640.62,478.23 638.92,479.32 637.23,480.40 635.54,481.49 633.86,482.58 632.18,483.66 630.50,484.74 628.83,485.82 627.16,486.90 625.50,487.98 623.84,489.06 622.18,490.13 620.53,491.21 618.88,492.28 617.24,493.35 615.60,494.43 613.96,495.49 612.33,496.56 610.71,497.63 609.09,498.69 607.47,499.76 605.86,500.82 604.25,501.88 602.65,502.94 601.05,503.99 599.46,505.05 597.87,506.10 596.29,507.15 594.71,508.20 593.13,509.25 591.57,510.30 590.00,511.34 588.45,512.39 586.89,513.43 585.35,514.47 583.80,515.50 582.27,516.54 580.74,517.57 579.21,518.60 577.69,519.63 576.18,520.66 574.67,521.69 573.16,522.71 571.67,523.73 570.17,524.75 568.69,525.77 567.21,526.79 565.73,527.80 564.27,528.81 562.80,529.82 561.35,530.83 559.90,531.83 558.45,532.83 557.01,533.84 555.58,534.83 554.16,535.83 552.74,536.82 551.32,537.81 549.92,538.80 548.52,539.79 547.12,540.77 545.74,541.75 544.36,542.73 542.98,543.71 541.61,544.68 540.25,545.65 538.90,546.62 537.55,547.59 536.21,548.55 534.88,549.51 533.55,550.47 532.24,551.43 530.92,552.38">