<?xml version='1.0' encoding='UTF-8'?>
<!-- generated on 2022-09-25 13:14:06 by Eclipse SUMO netconvert Version 1.13.0
<configuration xmlns:xsi="http://www.w3.org/2001/XMLSchema-instance" xsi:noNamespaceSchemaLocation="http://sumo.dlr.de/xsd/netconvertConfiguration.xsd">

    <input>
        <opendrive-files value="map_new_new\7\40\40.xodr"/>
    </input>

    <output>
        <output-file value="C:\Users\LinGe\AppData\Local\Temp\tmp_ejkisyn\40.net.xml"/>
    </output>

    <processing>
        <geometry.max-grade.fix value="false"/>
    </processing>

    <tls_building>
        <tls.left-green.time value="0"/>
    </tls_building>

    <junctions>
        <rectangular-lane-cut value="true"/>
    </junctions>

    <report>
        <aggregate-warnings value="5"/>
    </report>

</configuration>
-->
<net xmlns:xsi="http://www.w3.org/2001/XMLSchema-instance" version="1.9" junctionCornerDetail="5" rectangularLaneCut="true" limitTurnSpeed="5.50" xsi:noNamespaceSchemaLocation="http://sumo.dlr.de/xsd/net_file.xsd">
  <location netOffset="19.73,133.59" convBoundary="0.00,0.00,1120.91,1334.84" origBoundary="-19.73,-133.59,1101.18,1201.26" projParameter="!"/>
  <type id="bidirectional" priority="1" speed="1.39" disallow="pedestrian tram rail_urban rail rail_electric rail_fast ship" width="3.65"/>
  <type id="border" priority="0" speed="1.39" disallow="all" discard="1" width="0.10"/>
  <type id="driving" priority="1" speed="13.89" disallow="pedestrian tram rail_urban rail rail_electric rail_fast ship" width="3.65"/>
  <type id="entry" priority="1" speed="22.22" disallow="pedestrian tram rail_urban rail rail_electric rail_fast ship" width="3.65"/>
  <type id="exit" priority="1" speed="22.22" disallow="pedestrian tram rail_urban rail rail_electric rail_fast ship" width="3.65"/>
  <type id="median" priority="0" speed="1.39" disallow="all" discard="1" width="0.10"/>
  <type id="mwyEntry" priority="1" speed="22.22" allow="private emergency authority army vip passenger hov taxi bus coach delivery truck trailer motorcycle evehicle custom1 custom2" width="3.65"/>
  <type id="mwyExit" priority="1" speed="22.22" allow="private emergency authority army vip passenger hov taxi bus coach delivery truck trailer motorcycle evehicle custom1 custom2" width="3.65"/>
  <type id="none" priority="0" speed="1.39" disallow="all" discard="1" width="1.00"/>
  <type id="offRamp" priority="1" speed="22.22" allow="private emergency authority army vip passenger hov taxi bus coach delivery truck trailer motorcycle evehicle custom1 custom2" width="3.65"/>
  <type id="onRamp" priority="1" speed="22.22" allow="private emergency authority army vip passenger hov taxi bus coach delivery truck trailer motorcycle evehicle custom1 custom2" width="3.65"/>
  <type id="parking" priority="1" speed="1.39" disallow="pedestrian tram rail_urban rail rail_electric rail_fast ship" width="2.50"/>
  <type id="rail" priority="3" speed="33.33" allow="rail_urban rail rail_electric rail_fast" width="3.65"/>
  <type id="restricted" priority="0" speed="13.89" disallow="all" width="3.65"/>
  <type id="roadWorks" priority="0" speed="1.39" allow="authority" width="3.65"/>
  <type id="shoulder" priority="0" speed="1.39" disallow="all" discard="1" width="1.00"/>
  <type id="special1" priority="1" speed="22.22" allow="custom1" discard="1" width="3.65"/>
  <type id="special2" priority="1" speed="22.22" allow="custom2" discard="1" width="3.65"/>
  <type id="special3" priority="1" speed="22.22" allow="custom1 custom2" discard="1" width="3.65"/>
  <type id="stop" priority="1" speed="13.89" disallow="pedestrian tram rail_urban rail rail_electric rail_fast ship" width="3.65"/>
  <type id="tram" priority="2" speed="13.89" allow="tram" width="3.65"/>
  <edge id=":0_0" function="internal">
    <lane id=":0_0_0" index="0" disallow="pedestrian tram rail_urban rail rail_electric rail_fast ship" speed="15.97" length="44.92" width="3.75" shape="967.03,337.27 956.46,344.17,0.03 945.50,352.16,0.06 936.26,359.33,0.09 930.82,363.78,0.10"/>
  </edge>
  <edge id=":0_1" function="internal">
    <lane id=":0_1_0" index="0" disallow="pedestrian tram rail_urban rail rail_electric rail_fast ship" speed="22.22" length="45.05" width="3.75" shape="967.03,337.27 928.26,360.18"/>
    <lane id=":0_1_1" index="1" disallow="pedestrian tram rail_urban rail rail_electric rail_fast ship" speed="22.22" length="45.05" width="3.75" shape="965.13,334.04 926.34,356.96"/>
    <lane id=":0_1_2" index="2" disallow="pedestrian tram rail_urban rail rail_electric rail_fast ship" speed="22.22" length="45.05" width="3.75" shape="963.22,330.81 924.43,353.73"/>
  </edge>
  <edge id=":1_0" function="internal">
    <lane id=":1_0_0" index="0" disallow="pedestrian tram rail_urban rail rail_electric rail_fast ship" speed="15.28" length="26.00" width="3.75" shape="212.11,847.89 218.35,841.73,0.00 222.79,836.14,0.01 225.77,831.28,0.01 227.64,827.31,0.01"/>
  </edge>
  <edge id=":1_1" function="internal">
    <lane id=":1_1_0" index="0" disallow="pedestrian tram rail_urban rail rail_electric rail_fast ship" speed="22.22" length="26.41" width="3.75" shape="212.11,847.89 231.95,830.44"/>
    <lane id=":1_1_1" index="1" disallow="pedestrian tram rail_urban rail rail_electric rail_fast ship" speed="22.22" length="26.41" width="3.75" shape="214.59,850.71 234.42,833.25"/>
    <lane id=":1_1_2" index="2" disallow="pedestrian tram rail_urban rail rail_electric rail_fast ship" speed="22.22" length="26.41" width="3.75" shape="217.07,853.52 236.90,836.07"/>
  </edge>
  <edge id=":13.12_0" function="internal">
    <lane id=":13.12_0_0" index="0" disallow="pedestrian tram rail_urban rail rail_electric rail_fast ship" speed="22.22" length="0.30" width="3.75" shape="630.08,721.32,20.00 629.89,721.09,20.00"/>
    <lane id=":13.12_0_1" index="1" disallow="pedestrian tram rail_urban rail rail_electric rail_fast ship" speed="22.22" length="0.30" width="3.75" shape="633.00,718.97,20.00 632.81,718.73,20.00"/>
    <lane id=":13.12_0_2" index="2" disallow="pedestrian tram rail_urban rail rail_electric rail_fast ship" speed="22.22" length="0.30" width="3.75" shape="635.92,716.61,20.00 635.73,716.38,20.00"/>
  </edge>
  <edge id=":16.15_0" function="internal">
    <lane id=":16.15_0_0" index="0" disallow="pedestrian tram rail_urban rail rail_electric rail_fast ship" speed="16.67" length="0.30" width="3.75" shape="444.51,798.48,7.68 444.22,798.42,7.67"/>
  </edge>
  <edge id=":18.17_0" function="internal">
    <lane id=":18.17_0_0" index="0" disallow="pedestrian tram rail_urban rail rail_electric rail_fast ship" speed="9.72" length="0.30" width="3.75" shape="741.39,619.35,8.61 741.36,619.64,8.63"/>
  </edge>
  <edge id=":2_0" function="internal">
    <lane id=":2_0_0" index="0" disallow="pedestrian tram rail_urban rail rail_electric rail_fast ship" speed="19.44" length="86.05" width="3.75" shape="928.64,1143.84,20.00 917.52,1128.35,20.00 900.98,1106.12,20.00 885.40,1085.51,20.00 877.19,1074.87,20.00"/>
  </edge>
  <edge id=":2_1" function="internal">
    <lane id=":2_1_0" index="0" disallow="pedestrian tram rail_urban rail rail_electric rail_fast ship" speed="22.22" length="86.13" width="3.75" shape="928.64,1143.84,20.00 880.52,1072.42,20.00"/>
    <lane id=":2_1_1" index="1" disallow="pedestrian tram rail_urban rail rail_electric rail_fast ship" speed="22.22" length="86.13" width="3.75" shape="931.75,1141.75,20.00 883.62,1070.32,20.00"/>
    <lane id=":2_1_2" index="2" disallow="pedestrian tram rail_urban rail rail_electric rail_fast ship" speed="22.22" length="86.13" width="3.75" shape="934.86,1139.66,20.00 886.73,1068.21,20.00"/>
  </edge>
  <edge id=":2.1_0" function="internal">
    <lane id=":2.1_0_0" index="0" disallow="pedestrian tram rail_urban rail rail_electric rail_fast ship" speed="22.22" length="0.30" width="3.75" shape="540.24,605.07 540.00,605.24"/>
    <lane id=":2.1_0_1" index="1" disallow="pedestrian tram rail_urban rail rail_electric rail_fast ship" speed="22.22" length="0.30" width="3.75" shape="538.04,602.03 537.79,602.21"/>
    <lane id=":2.1_0_2" index="2" disallow="pedestrian tram rail_urban rail rail_electric rail_fast ship" speed="22.22" length="0.30" width="3.75" shape="535.83,599.00 535.59,599.18"/>
  </edge>
  <edge id=":21.20_0" function="internal">
    <lane id=":21.20_0_0" index="0" disallow="pedestrian tram rail_urban rail rail_electric rail_fast ship" speed="19.44" length="0.30" width="3.75" shape="33.09,152.41,6.01 33.23,152.15,6.01"/>
  </edge>
  <edge id=":23.22_0" function="internal">
    <lane id=":23.22_0_0" index="0" disallow="pedestrian tram rail_urban rail rail_electric rail_fast ship" speed="8.33" length="0.29" width="3.75" shape="336.12,233.76,6.09 336.40,233.67,6.09"/>
  </edge>
  <edge id=":3_0" function="internal">
    <lane id=":3_0_0" index="0" disallow="pedestrian tram rail_urban rail rail_electric rail_fast ship" speed="19.44" length="125.66" width="3.75" shape="213.59,882.34,0.00 117.04,962.77"/>
  </edge>
  <edge id=":3_1" function="internal">
    <lane id=":3_1_0" index="0" disallow="pedestrian tram rail_urban rail rail_electric rail_fast ship" speed="22.22" length="125.48" width="3.75" shape="210.79,879.39 117.04,962.77"/>
    <lane id=":3_1_1" index="1" disallow="pedestrian tram rail_urban rail rail_electric rail_fast ship" speed="22.22" length="125.48" width="3.75" shape="208.30,876.59 114.55,959.98"/>
    <lane id=":3_1_2" index="2" disallow="pedestrian tram rail_urban rail rail_electric rail_fast ship" speed="22.22" length="125.48" width="3.75" shape="205.82,873.78 112.05,957.18"/>
  </edge>
  <edge id=":4_0" function="internal">
    <lane id=":4_0_0" index="0" disallow="pedestrian tram rail_urban rail rail_electric rail_fast ship" speed="16.67" length="3.00" width="3.75" shape="641.94,876.67,12.03 639.34,875.18,11.97"/>
  </edge>
  <edge id=":4_1" function="internal">
    <lane id=":4_1_0" index="0" disallow="pedestrian tram rail_urban rail rail_electric rail_fast ship" speed="18.06" length="3.00" width="3.75" shape="641.94,876.67,12.03 639.33,875.18,12.00"/>
  </edge>
  <edge id=":5_0" function="internal">
    <lane id=":5_0_0" index="0" disallow="pedestrian tram rail_urban rail rail_electric rail_fast ship" speed="15.97" length="120.82" width="3.75" shape="837.81,962.23,20.00 902.47,1064.29,20.00"/>
  </edge>
  <edge id=":5_1" function="internal">
    <lane id=":5_1_0" index="0" disallow="pedestrian tram rail_urban rail rail_electric rail_fast ship" speed="22.22" length="120.61" width="3.75" shape="834.52,964.61,20.00 902.47,1064.29,20.00"/>
    <lane id=":5_1_1" index="1" disallow="pedestrian tram rail_urban rail rail_electric rail_fast ship" speed="22.22" length="120.61" width="3.75" shape="831.43,966.73,20.00 899.36,1066.39,20.00"/>
    <lane id=":5_1_2" index="2" disallow="pedestrian tram rail_urban rail rail_electric rail_fast ship" speed="22.22" length="120.61" width="3.75" shape="828.34,968.86,20.00 896.26,1068.49,20.00"/>
  </edge>
  <edge id=":6_0" function="internal">
    <lane id=":6_0_0" index="0" disallow="pedestrian tram rail_urban rail rail_electric rail_fast ship" speed="11.59" length="16.83" width="3.75" shape="907.31,335.84,0.00 911.94,337.62,0.00 916.18,338.33,0.00 920.02,338.00,0.00 923.46,336.60"/>
  </edge>
  <edge id=":6_1" function="internal">
    <lane id=":6_1_0" index="0" disallow="pedestrian tram rail_urban rail rail_electric rail_fast ship" speed="22.22" length="14.43" width="3.75" shape="911.05,343.96 923.46,336.60"/>
    <lane id=":6_1_1" index="1" disallow="pedestrian tram rail_urban rail rail_electric rail_fast ship" speed="22.22" length="14.43" width="3.75" shape="912.96,347.18 925.37,339.83"/>
    <lane id=":6_1_2" index="2" disallow="pedestrian tram rail_urban rail rail_electric rail_fast ship" speed="22.22" length="14.43" width="3.75" shape="914.87,350.41 927.28,343.06"/>
  </edge>
  <edge id=":6.5_0" function="internal">
    <lane id=":6.5_0_0" index="0" disallow="pedestrian tram rail_urban rail rail_electric rail_fast ship" speed="22.22" length="0.30" width="3.75" shape="526.62,586.85 526.86,586.67"/>
    <lane id=":6.5_0_1" index="1" disallow="pedestrian tram rail_urban rail rail_electric rail_fast ship" speed="22.22" length="0.30" width="3.75" shape="528.82,589.88 529.07,589.70"/>
    <lane id=":6.5_0_2" index="2" disallow="pedestrian tram rail_urban rail rail_electric rail_fast ship" speed="22.22" length="0.30" width="3.75" shape="531.03,592.91 531.27,592.74"/>
  </edge>
  <edge id=":7_0" function="internal">
    <lane id=":7_0_0" index="0" disallow="pedestrian tram rail_urban rail rail_electric rail_fast ship" speed="9.72" length="44.20" width="3.75" shape="738.73,644.95,12.12 738.32,653.26,12.13 737.90,667.04,12.15 737.60,680.83,12.17 737.58,689.14,12.19"/>
  </edge>
  <edge id=":7_1" function="internal">
    <lane id=":7_1_0" index="0" disallow="pedestrian tram rail_urban rail rail_electric rail_fast ship" speed="9.03" length="43.79" width="3.75" shape="734.68,645.44,12.08 737.58,689.14,12.19"/>
  </edge>
  <edge id=":9.8_0" function="internal">
    <lane id=":9.8_0_0" index="0" disallow="pedestrian tram rail_urban rail rail_electric rail_fast ship" speed="22.22" length="0.30" width="3.75" shape="647.59,706.79,20.00 647.78,707.03,20.00"/>
    <lane id=":9.8_0_1" index="1" disallow="pedestrian tram rail_urban rail rail_electric rail_fast ship" speed="22.22" length="0.30" width="3.75" shape="644.67,709.15,20.00 644.86,709.38,20.00"/>
    <lane id=":9.8_0_2" index="2" disallow="pedestrian tram rail_urban rail rail_electric rail_fast ship" speed="22.22" length="0.30" width="3.75" shape="641.76,711.51,20.00 641.94,711.74,20.00"/>
  </edge>
  <edge id="-0" from="0.begin" to="0" priority="1" type="driving" shape="1120.91,235.20 1119.97,235.78 1119.01,236.38 1118.03,236.98 1117.03,237.59 1116.01,238.22 1114.96,238.85 1113.90,239.50 1112.82,240.16 1111.73,240.83 1110.61,241.50 1109.47,242.19 1108.31,242.89 1107.14,243.60 1105.95,244.32 1104.73,245.05 1103.50,245.79 1102.25,246.54 1100.99,247.30 1099.70,248.07 1098.40,248.86 1097.08,249.65 1095.74,250.45 1094.38,251.26 1093.01,252.08 1091.62,252.91 1090.21,253.75 1088.79,254.59 1087.35,255.45 1085.89,256.32 1084.41,257.20 1082.92,258.08 1081.41,258.98 1079.89,259.88 1078.35,260.80 1076.79,261.72 1075.22,262.65 1073.63,263.59 1072.03,264.54 1070.41,265.50 1068.77,266.46 1067.12,267.44 1065.46,268.42 1063.78,269.42 1062.08,270.42 1060.37,271.43 1058.65,272.45 1056.91,273.47 1055.15,274.51 1053.39,275.55 1051.60,276.60 1049.81,277.66 1048.00,278.72 1046.17,279.80 1044.34,280.88 1042.49,281.97 1040.62,283.07 1038.74,284.17 1036.85,285.29 1034.95,286.41 1033.03,287.53 1031.10,288.67 1029.16,289.81 1027.21,290.96 1025.24,292.12 1023.26,293.28 1021.27,294.46 1019.27,295.63 1017.25,296.82 1015.23,298.01 1013.19,299.21 1011.14,300.42 1009.08,301.63 1007.00,302.85 1004.92,304.07 1002.82,305.31 1000.72,306.55 998.60,307.79 996.48,309.04 994.34,310.30 992.19,311.56 990.03,312.83 987.86,314.11 985.69,315.39 983.50,316.68 981.30,317.98 979.09,319.28 976.88,320.58 974.65,321.89 972.41,323.21 970.17,324.53 967.92,325.86 965.65,327.20 963.38,328.54 961.10,329.88 958.81,331.23">
    <lane id="-0_0" index="0" disallow="pedestrian tram rail_urban rail rail_electric rail_fast ship" speed="22.22" length="184.51" width="3.75" shape="1125.84,243.18 1124.89,243.76 1123.92,244.36 1122.93,244.97 1121.92,245.59 1120.90,246.22 1119.85,246.86 1118.78,247.51 1117.70,248.17 1116.59,248.84 1115.47,249.52 1114.33,250.21 1113.16,250.91 1111.98,251.63 1110.79,252.35 1109.57,253.08 1108.34,253.83 1107.08,254.58 1105.81,255.34 1104.52,256.12 1103.22,256.90 1101.89,257.69 1100.55,258.49 1099.19,259.31 1097.82,260.13 1096.42,260.96 1095.01,261.80 1093.58,262.65 1092.14,263.51 1090.68,264.38 1089.20,265.26 1087.71,266.14 1086.20,267.04 1084.67,267.95 1083.13,268.86 1081.57,269.78 1080.00,270.72 1078.41,271.66 1076.80,272.61 1075.18,273.57 1073.54,274.53 1071.89,275.51 1070.22,276.50 1068.54,277.49 1066.85,278.49 1065.14,279.50 1063.41,280.52 1061.67,281.55 1059.92,282.58 1058.15,283.62 1056.36,284.67 1054.57,285.73 1052.76,286.80 1050.93,287.88 1049.09,288.96 1047.24,290.05 1045.38,291.15 1043.50,292.25 1041.61,293.37 1039.70,294.49 1037.79,295.61 1035.86,296.75 1033.92,297.89 1031.96,299.04 1029.99,300.20 1028.02,301.36 1026.02,302.54 1024.02,303.71 1022.01,304.90 1019.98,306.09 1017.94,307.29 1015.89,308.50 1013.83,309.71 1011.76,310.93 1009.67,312.15 1007.58,313.39 1005.47,314.63 1003.36,315.87 1001.23,317.12 999.09,318.38 996.95,319.64 994.79,320.91 992.62,322.19 990.44,323.47 988.25,324.76 986.06,326.05 983.85,327.35 981.63,328.66 979.41,329.97 977.17,331.29 974.93,332.61 972.68,333.94 970.42,335.27 968.14,336.61 967.03,337.27" type="driving"/>
    <lane id="-0_1" index="1" disallow="pedestrian tram rail_urban rail rail_electric rail_fast ship" speed="22.22" length="184.51" width="3.75" shape="1123.87,239.99 1122.92,240.57 1121.96,241.17 1120.97,241.77 1119.96,242.39 1118.94,243.02 1117.89,243.66 1116.83,244.30 1115.75,244.96 1114.65,245.63 1113.52,246.31 1112.38,247.00 1111.22,247.71 1110.05,248.42 1108.85,249.14 1107.64,249.87 1106.40,250.61 1105.15,251.36 1103.88,252.13 1102.60,252.90 1101.29,253.68 1099.97,254.47 1098.63,255.27 1097.27,256.09 1095.89,256.91 1094.50,257.74 1093.09,258.58 1091.67,259.43 1090.22,260.29 1088.76,261.15 1087.29,262.03 1085.79,262.92 1084.28,263.82 1082.76,264.72 1081.22,265.63 1079.66,266.56 1078.08,267.49 1076.50,268.43 1074.89,269.38 1073.27,270.34 1071.63,271.31 1069.98,272.28 1068.32,273.27 1066.64,274.26 1064.94,275.26 1063.23,276.27 1061.50,277.29 1059.76,278.32 1058.01,279.35 1056.24,280.39 1054.46,281.44 1052.66,282.50 1050.85,283.57 1049.03,284.64 1047.19,285.73 1045.34,286.82 1043.48,287.91 1041.60,289.02 1039.71,290.13 1037.80,291.25 1035.89,292.38 1033.96,293.52 1032.01,294.66 1030.06,295.81 1028.09,296.97 1026.11,298.13 1024.12,299.30 1022.12,300.48 1020.10,301.67 1018.08,302.86 1016.04,304.06 1013.99,305.26 1011.93,306.48 1009.86,307.70 1007.77,308.92 1005.68,310.15 1003.57,311.39 1001.46,312.64 999.33,313.89 997.19,315.15 995.04,316.41 992.89,317.68 990.72,318.96 988.54,320.24 986.35,321.53 984.15,322.82 981.95,324.12 979.73,325.43 977.50,326.74 975.27,328.06 973.03,329.38 970.77,330.71 968.51,332.04 966.24,333.38 965.13,334.04" type="driving"/>
    <lane id="-0_2" index="2" disallow="pedestrian tram rail_urban rail rail_electric rail_fast ship" speed="22.22" length="184.51" width="3.75" shape="1121.90,236.80 1120.95,237.38 1119.99,237.97 1119.01,238.58 1118.01,239.19 1116.98,239.82 1115.94,240.45 1114.88,241.10 1113.80,241.76 1112.70,242.43 1111.58,243.11 1110.44,243.80 1109.28,244.50 1108.11,245.21 1106.91,245.93 1105.70,246.66 1104.47,247.40 1103.22,248.15 1101.95,248.91 1100.67,249.68 1099.36,250.46 1098.04,251.25 1096.70,252.06 1095.35,252.87 1093.97,253.69 1092.58,254.52 1091.17,255.36 1089.75,256.20 1088.31,257.06 1086.85,257.93 1085.37,258.81 1083.88,259.69 1082.37,260.59 1080.84,261.50 1079.30,262.41 1077.75,263.33 1076.17,264.26 1074.59,265.20 1072.98,266.15 1071.36,267.11 1069.73,268.08 1068.08,269.05 1066.41,270.04 1064.73,271.03 1063.03,272.03 1061.32,273.04 1059.60,274.06 1057.86,275.09 1056.11,276.12 1054.34,277.16 1052.56,278.21 1050.76,279.27 1048.95,280.34 1047.13,281.41 1045.29,282.50 1043.44,283.59 1041.57,284.68 1039.69,285.79 1037.80,286.90 1035.90,288.02 1033.98,289.15 1032.05,290.29 1030.11,291.43 1028.16,292.58 1026.19,293.74 1024.21,294.90 1022.22,296.07 1020.22,297.25 1018.20,298.44 1016.18,299.63 1014.14,300.83 1012.09,302.03 1010.03,303.25 1007.95,304.46 1005.87,305.69 1003.78,306.92 1001.67,308.16 999.55,309.41 997.43,310.66 995.29,311.92 993.14,313.18 990.98,314.45 988.82,315.73 986.64,317.01 984.45,318.30 982.25,319.59 980.04,320.89 977.83,322.20 975.60,323.51 973.37,324.83 971.12,326.15 968.87,327.48 966.61,328.81 964.33,330.15 963.22,330.81" type="driving"/>
  </edge>
  <edge id="-1" from="0" to="2.1" priority="1" type="driving" shape="958.81,331.23 957.18,332.20 955.53,333.17 953.89,334.14 952.24,335.11 950.58,336.09 948.92,337.07 947.26,338.05 945.59,339.04 943.92,340.02 942.25,341.01 940.57,342.01 938.89,343.00 937.20,344.00 935.51,345.00 933.82,346.00 932.12,347.00 930.42,348.01 928.72,349.02 927.01,350.03 925.30,351.04 923.58,352.06 921.87,353.07 920.15,354.09 918.42,355.11 916.70,356.14 914.97,357.16 913.23,358.19 911.50,359.22 909.76,360.25 908.02,361.29 906.27,362.32 904.52,363.36 902.77,364.40 901.02,365.44 899.26,366.49 897.50,367.53 895.74,368.58 893.98,369.63 892.21,370.68 890.44,371.73 888.67,372.79 886.90,373.84 885.12,374.90 883.35,375.96 881.57,377.02 879.78,378.09 878.00,379.15 876.21,380.22 874.42,381.28 872.63,382.35 870.84,383.42 869.04,384.50 867.25,385.57 865.45,386.65 863.65,387.72 861.85,388.80 860.04,389.88 858.24,390.96 856.43,392.04 854.62,393.13 852.81,394.21 851.00,395.30 849.19,396.38 847.37,397.47 845.56,398.56 843.74,399.65 841.92,400.75 840.10,401.84 838.28,402.93 836.46,404.03 834.64,405.13 832.81,406.22 830.99,407.32 829.16,408.42 827.34,409.52 825.51,410.62 823.68,411.73 821.85,412.83 820.02,413.93 818.19,415.04 816.36,416.15 814.53,417.25 812.70,418.36 810.87,419.47 809.03,420.58 807.20,421.69 805.37,422.80 803.53,423.91 801.70,425.02 799.87,426.13 798.03,427.25 796.20,428.36 794.36,429.48 792.53,430.59 790.69,431.71 788.86,432.82 787.03,433.94 785.19,435.06 783.36,436.17 781.52,437.29 779.69,438.41 777.86,439.53 776.03,440.65 774.19,441.77 772.36,442.89 770.53,444.00 768.70,445.13 766.87,446.25 765.04,447.37 763.22,448.49 761.39,449.61 759.56,450.73 757.74,451.85 755.91,452.97 754.09,454.09 752.27,455.21 750.44,456.33 748.62,457.46 746.80,458.58 744.99,459.70 743.17,460.82 741.35,461.94 739.54,463.06 737.73,464.18 735.91,465.30 734.10,466.43 732.29,467.55 730.49,468.67 728.68,469.79 726.88,470.91 725.08,472.02 723.28,473.14 721.48,474.26 719.68,475.38 717.88,476.50 716.09,477.62 714.30,478.73 712.51,479.85 710.72,480.97 708.94,482.08 707.16,483.20 705.38,484.31 703.60,485.43 701.82,486.54 700.05,487.65 698.28,488.77 696.51,489.88 694.74,490.99 692.98,492.10 691.22,493.21 689.46,494.32 687.70,495.43 685.95,496.53 684.20,497.64 682.45,498.75 680.70,499.85 678.96,500.95 677.22,502.06 675.49,503.16 673.75,504.26 672.02,505.36 670.30,506.46 668.57,507.56 666.85,508.66 665.13,509.75 663.42,510.85 661.71,511.94 660.00,513.03 658.30,514.13 656.60,515.22 654.90,516.31 653.21,517.39 651.52,518.48 649.83,519.57 648.15,520.65 646.47,521.73 644.80,522.82 643.12,523.90 641.46,524.97 639.79,526.05 638.13,527.13 636.48,528.20 634.83,529.28 633.18,530.35 631.54,531.42 629.90,532.49 628.26,533.55 626.63,534.62 625.01,535.68 623.39,536.75 621.77,537.81 620.16,538.87 618.55,539.92 616.95,540.98 615.35,542.03 613.75,543.08 612.16,544.13 610.58,545.18 609.00,546.23 607.43,547.27 605.86,548.32 604.29,549.36 602.73,550.40 601.18,551.44 599.63,552.47 598.08,553.50 596.54,554.53 595.01,555.56 593.48,556.59 591.95,557.62 590.43,558.64 588.92,559.66 587.41,560.68 585.91,561.70 584.41,562.71 582.92,563.72 581.44,564.73 579.96,565.74 578.48,566.74 577.02,567.75 575.55,568.75 574.10,569.75 572.65,570.74 571.20,571.74 569.76,572.73 568.33,573.72 566.90,574.70 565.48,575.69 564.07,576.67 562.66,577.65 561.26,578.62 559.86,579.60 558.47,580.57 557.09,581.54 555.71,582.50 554.34,583.46 552.98,584.42 551.62,585.38 550.27,586.34 548.93,587.29 547.59,588.24 546.26,589.18 544.94,590.13 543.62,591.07 542.31,592.01 541.01,592.94 539.72,593.87 538.43,594.80 537.15,595.73 535.87,596.65 534.61,597.57">
    <lane id="-1_0" index="0" disallow="pedestrian tram rail_urban rail rail_electric rail_fast ship" speed="22.22" length="459.32" width="3.75" shape="928.26,360.18 926.65,361.14 924.93,362.16 923.20,363.18 921.48,364.20 919.75,365.23 918.02,366.25 916.28,367.28 914.54,368.32 912.80,369.35 911.06,370.38 909.31,371.42 907.56,372.46 905.81,373.50 904.05,374.55 902.30,375.59 900.54,376.64 898.77,377.69 897.01,378.74 895.24,379.79 893.47,380.84 891.70,381.90 889.92,382.96 888.15,384.01 886.37,385.07 884.58,386.14 882.80,387.20 881.01,388.27 879.23,389.33 877.44,390.40 875.65,391.47 873.85,392.54 872.06,393.62 870.26,394.69 868.46,395.77 866.66,396.84 864.86,397.92 863.05,399.00 861.25,400.09 859.44,401.17 857.63,402.25 855.82,403.34 854.01,404.42 852.20,405.51 850.38,406.60 848.57,407.69 846.75,408.78 844.93,409.87 843.11,410.97 841.29,412.06 839.47,413.16 837.65,414.26 835.82,415.35 834.00,416.45 832.18,417.55 830.35,418.65 828.52,419.75 826.70,420.86 824.87,421.96 823.04,423.06 821.21,424.17 819.38,425.27 817.55,426.38 815.72,427.49 813.89,428.60 812.06,429.71 810.23,430.82 808.39,431.93 806.56,433.04 804.73,434.15 802.90,435.26 801.06,436.37 799.23,437.49 797.40,438.60 795.57,439.72 793.73,440.83 791.90,441.95 790.07,443.06 788.24,444.18 786.41,445.29 784.57,446.41 782.74,447.53 780.91,448.65 779.08,449.76 777.25,450.88 775.43,452.00 773.60,453.12 771.77,454.24 769.94,455.36 768.12,456.48 766.29,457.60 764.47,458.72 762.64,459.84 760.82,460.96 759.00,462.08 757.18,463.20 755.36,464.32 753.54,465.44 751.72,466.56 749.91,467.68 748.09,468.80 746.28,469.92 744.47,471.04 742.66,472.16 740.85,473.28 739.04,474.40 737.23,475.51 735.43,476.63 733.62,477.75 731.82,478.87 730.02,479.99 728.23,481.11 726.43,482.22 724.64,483.34 722.84,484.46 721.05,485.57 719.26,486.69 717.48,487.80 715.69,488.92 713.91,490.03 712.13,491.15 710.35,492.26 708.58,493.37 706.80,494.48 705.03,495.59 703.26,496.70 701.50,497.81 699.73,498.92 697.97,500.03 696.22,501.14 694.46,502.25 692.71,503.35 690.96,504.46 689.21,505.56 687.46,506.67 685.72,507.77 683.98,508.87 682.25,509.97 680.51,511.07 678.78,512.17 677.06,513.27 675.33,514.37 673.61,515.46 671.89,516.56 670.18,517.65 668.47,518.75 666.76,519.84 665.06,520.93 663.36,522.02 661.66,523.11 659.97,524.19 658.28,525.28 656.59,526.36 654.91,527.45 653.23,528.53 651.55,529.61 649.88,530.69 648.22,531.77 646.55,532.84 644.89,533.92 643.24,534.99 641.59,536.06 639.94,537.14 638.30,538.20 636.66,539.27 635.02,540.34 633.39,541.40 631.77,542.47 630.14,543.53 628.53,544.59 626.92,545.64 625.31,546.70 623.70,547.75 622.10,548.81 620.51,549.86 618.92,550.91 617.34,551.95 615.76,553.00 614.18,554.04 612.61,555.09 611.05,556.13 609.48,557.16 607.93,558.20 606.38,559.23 604.83,560.26 603.29,561.29 601.76,562.32 600.23,563.35 598.71,564.37 597.19,565.39 595.67,566.41 594.17,567.43 592.66,568.45 591.17,569.46 589.68,570.47 588.19,571.48 586.71,572.48 585.24,573.49 583.77,574.49 582.31,575.49 580.85,576.48 579.40,577.48 577.95,578.47 576.52,579.46 575.08,580.45 573.66,581.43 572.24,582.41 570.82,583.39 569.41,584.37 568.01,585.34 566.62,586.31 565.23,587.28 563.85,588.25 562.47,589.21 561.10,590.17 559.74,591.13 558.38,592.09 557.03,593.04 555.69,593.99 554.35,594.93 553.03,595.88 551.70,596.82 550.39,597.76 549.08,598.69 547.78,599.63 546.48,600.55 545.20,601.48 543.92,602.40 542.64,603.32 541.38,604.24 540.24,605.07" type="driving"/>