<?xml version='1.0' encoding='UTF-8'?>
<!-- generated on 2022-09-25 13:11:27 by Eclipse SUMO netconvert Version 1.13.0
<configuration xmlns:xsi="http://www.w3.org/2001/XMLSchema-instance" xsi:noNamespaceSchemaLocation="http://sumo.dlr.de/xsd/netconvertConfiguration.xsd">

    <input>
        <opendrive-files value="map_new_new\11\15\15.xodr"/>
    </input>

    <output>
        <output-file value="C:\Users\LinGe\AppData\Local\Temp\tmpzc49r8or\15.net.xml"/>
    </output>

    <processing>
        <geometry.max-grade.fix value="false"/>
    </processing>

    <tls_building>
        <tls.left-green.time value="0"/>
    </tls_building>

    <junctions>
        <rectangular-lane-cut value="true"/>
    </junctions>

    <report>
        <aggregate-warnings value="5"/>
    </report>

</configuration>
-->
<net xmlns:xsi="http://www.w3.org/2001/XMLSchema-instance" version="1.9" junctionCornerDetail="5" rectangularLaneCut="true" limitTurnSpeed="5.50" xsi:noNamespaceSchemaLocation="http://sumo.dlr.de/xsd/net_file.xsd">
  <location netOffset="2.37,101.26" convBoundary="0.00,0.00,1103.54,1302.51" origBoundary="-2.37,-101.26,1101.18,1201.26" projParameter="!"/>
  <type id="bidirectional" priority="1" speed="1.39" disallow="pedestrian tram rail_urban rail rail_electric rail_fast ship" width="3.65"/>
  <type id="border" priority="0" speed="1.39" disallow="all" discard="1" width="0.10"/>
  <type id="driving" priority="1" speed="13.89" disallow="pedestrian tram rail_urban rail rail_electric rail_fast ship" width="3.65"/>
  <type id="entry" priority="1" speed="22.22" disallow="pedestrian tram rail_urban rail rail_electric rail_fast ship" width="3.65"/>
  <type id="exit" priority="1" speed="22.22" disallow="pedestrian tram rail_urban rail rail_electric rail_fast ship" width="3.65"/>
  <type id="median" priority="0" speed="1.39" disallow="all" discard="1" width="0.10"/>
  <type id="mwyEntry" priority="1" speed="22.22" allow="private emergency authority army vip passenger hov taxi bus coach delivery truck trailer motorcycle evehicle custom1 custom2" width="3.65"/>
  <type id="mwyExit" priority="1" speed="22.22" allow="private emergency authority army vip passenger hov taxi bus coach delivery truck trailer motorcycle evehicle custom1 custom2" width="3.65"/>
  <type id="none" priority="0" speed="1.39" disallow="all" discard="1" width="1.00"/>
  <type id="offRamp" priority="1" speed="22.22" allow="private emergency authority army vip passenger hov taxi bus coach delivery truck trailer motorcycle evehicle custom1 custom2" width="3.65"/>
  <type id="onRamp" priority="1" speed="22.22" allow="private emergency authority army vip passenger hov taxi bus coach delivery truck trailer motorcycle evehicle custom1 custom2" width="3.65"/>
  <type id="parking" priority="1" speed="1.39" disallow="pedestrian tram rail_urban rail rail_electric rail_fast ship" width="2.50"/>
  <type id="rail" priority="3" speed="33.33" allow="rail_urban rail rail_electric rail_fast" width="3.65"/>
  <type id="restricted" priority="0" speed="13.89" disallow="all" width="3.65"/>
  <type id="roadWorks" priority="0" speed="1.39" allow="authority" width="3.65"/>
  <type id="shoulder" priority="0" speed="1.39" disallow="all" discard="1" width="1.00"/>
  <type id="special1" priority="1" speed="22.22" allow="custom1" discard="1" width="3.65"/>
  <type id="special2" priority="1" speed="22.22" allow="custom2" discard="1" width="3.65"/>
  <type id="special3" priority="1" speed="22.22" allow="custom1 custom2" discard="1" width="3.65"/>
  <type id="stop" priority="1" speed="13.89" disallow="pedestrian tram rail_urban rail rail_electric rail_fast ship" width="3.65"/>
  <type id="tram" priority="2" speed="13.89" allow="tram" width="3.65"/>
  <edge id=":0_0" function="internal">
    <lane id=":0_0_0" index="0" disallow="pedestrian tram rail_urban rail rail_electric rail_fast ship" speed="15.28" length="41.42" width="3.75" shape="998.20,276.05 988.07,282.64,0.03 978.13,289.98,0.06 969.92,296.52,0.08 964.96,300.70,0.10"/>
  </edge>
  <edge id=":0_1" function="internal">
    <lane id=":0_1_0" index="0" disallow="pedestrian tram rail_urban rail rail_electric rail_fast ship" speed="22.22" length="41.56" width="3.75" shape="998.20,276.05 962.35,297.07"/>
    <lane id=":0_1_1" index="1" disallow="pedestrian tram rail_urban rail rail_electric rail_fast ship" speed="22.22" length="41.56" width="3.75" shape="996.30,272.82 960.45,293.84"/>
    <lane id=":0_1_2" index="2" disallow="pedestrian tram rail_urban rail rail_electric rail_fast ship" speed="22.22" length="41.56" width="3.75" shape="994.40,269.58 958.55,290.60"/>
  </edge>
  <edge id=":1_0" function="internal">
    <lane id=":1_0_0" index="0" disallow="pedestrian tram rail_urban rail rail_electric rail_fast ship" speed="9.95" length="13.03" width="3.75" shape="216.60,785.57 218.81,783.02,0.00 220.19,780.21,0.00 220.74,777.11,0.00 220.46,773.74,0.00"/>
  </edge>
  <edge id=":1_1" function="internal">
    <lane id=":1_1_0" index="0" disallow="pedestrian tram rail_urban rail rail_electric rail_fast ship" speed="22.22" length="14.15" width="3.75" shape="216.60,785.57 227.06,776.02"/>
    <lane id=":1_1_1" index="1" disallow="pedestrian tram rail_urban rail rail_electric rail_fast ship" speed="22.22" length="14.15" width="3.75" shape="219.13,788.33 229.58,778.79"/>
    <lane id=":1_1_2" index="2" disallow="pedestrian tram rail_urban rail rail_electric rail_fast ship" speed="22.22" length="14.15" width="3.75" shape="221.66,791.10 232.11,781.56"/>
  </edge>
  <edge id=":10_0" function="internal">
    <lane id=":10_0_0" index="0" disallow="pedestrian tram rail_urban rail rail_electric rail_fast ship" speed="22.22" length="67.34" width="3.75" shape="576.60,312.64,7.62 641.93,328.94,7.59"/>
  </edge>
  <edge id=":10_1" function="internal">
    <lane id=":10_1_0" index="0" disallow="pedestrian tram rail_urban rail rail_electric rail_fast ship" speed="16.67" length="67.11" width="3.75" shape="575.98,316.53,7.67 641.93,328.94,7.59"/>
  </edge>
  <edge id=":11_0" function="internal">
    <lane id=":11_0_0" index="0" disallow="pedestrian tram rail_urban rail rail_electric rail_fast ship" speed="8.33" length="70.01" width="3.75" shape="746.37,707.69,12.19 760.01,776.36,12.23"/>
  </edge>
  <edge id=":11_1" function="internal">
    <lane id=":11_1_0" index="0" disallow="pedestrian tram rail_urban rail rail_electric rail_fast ship" speed="8.33" length="69.78" width="3.75" shape="742.58,708.79,12.14 760.01,776.36,12.23"/>
  </edge>
  <edge id=":14.13_0" function="internal">
    <lane id=":14.13_0_0" index="0" disallow="pedestrian tram rail_urban rail rail_electric rail_fast ship" speed="22.22" length="0.30" width="3.75" shape="412.53,613.89,20.00 412.34,613.65,20.00"/>
    <lane id=":14.13_0_1" index="1" disallow="pedestrian tram rail_urban rail rail_electric rail_fast ship" speed="22.22" length="0.30" width="3.75" shape="415.45,611.53,20.00 415.26,611.30,20.00"/>
    <lane id=":14.13_0_2" index="2" disallow="pedestrian tram rail_urban rail rail_electric rail_fast ship" speed="22.22" length="0.30" width="3.75" shape="418.37,609.17,20.00 418.18,608.94,20.00"/>
  </edge>
  <edge id=":18.17_0" function="internal">
    <lane id=":18.17_0_0" index="0" disallow="pedestrian tram rail_urban rail rail_electric rail_fast ship" speed="9.72" length="0.29" width="3.75" shape="400.79,794.80,7.37 400.50,794.73,7.36"/>
  </edge>
  <edge id=":2_0" function="internal">
    <lane id=":2_0_0" index="0" disallow="pedestrian tram rail_urban rail rail_electric rail_fast ship" speed="22.22" length="25.44" width="3.75" shape="73.93,87.74,20.00 79.09,94.57,19.99 83.95,99.54,19.98 88.25,103.09,19.98 91.75,105.67,19.97"/>
  </edge>
  <edge id=":2_1" function="internal">
    <lane id=":2_1_0" index="0" disallow="pedestrian tram rail_urban rail rail_electric rail_fast ship" speed="22.22" length="25.64" width="3.75" shape="73.93,87.74,20.00 88.09,109.11,20.00"/>
    <lane id=":2_1_1" index="1" disallow="pedestrian tram rail_urban rail rail_electric rail_fast ship" speed="22.22" length="25.64" width="3.75" shape="70.80,89.81,20.00 84.97,111.18,20.00"/>
    <lane id=":2_1_2" index="2" disallow="pedestrian tram rail_urban rail rail_electric rail_fast ship" speed="22.22" length="25.64" width="3.75" shape="67.68,91.88,20.00 81.84,113.25,20.00"/>
  </edge>
  <edge id=":2.1_0" function="internal">
    <lane id=":2.1_0_0" index="0" disallow="pedestrian tram rail_urban rail rail_electric rail_fast ship" speed="22.22" length="0.30" width="3.75" shape="466.45,604.89 466.21,605.06"/>
    <lane id=":2.1_0_1" index="1" disallow="pedestrian tram rail_urban rail rail_electric rail_fast ship" speed="22.22" length="0.30" width="3.75" shape="464.25,601.85 464.01,602.03"/>
    <lane id=":2.1_0_2" index="2" disallow="pedestrian tram rail_urban rail rail_electric rail_fast ship" speed="22.22" length="0.30" width="3.75" shape="462.05,598.82 461.80,599.00"/>
  </edge>
  <edge id=":21.20_0" function="internal">
    <lane id=":21.20_0_0" index="0" disallow="pedestrian tram rail_urban rail rail_electric rail_fast ship" speed="22.22" length="0.30" width="3.75" shape="665.39,333.46,7.08 665.68,333.51,7.07"/>
  </edge>
  <edge id=":24.23_0" function="internal">
    <lane id=":24.23_0_0" index="0" disallow="pedestrian tram rail_urban rail rail_electric rail_fast ship" speed="8.33" length="0.28" width="3.75" shape="738.71,599.70,8.16 738.69,599.97,8.17"/>
  </edge>
  <edge id=":27.26_0" function="internal">
    <lane id=":27.26_0_0" index="0" disallow="pedestrian tram rail_urban rail rail_electric rail_fast ship" speed="16.67" length="0.30" width="3.75" shape="286.34,968.75,13.31 286.06,968.65,13.31"/>
  </edge>
  <edge id=":29.28_0" function="internal">
    <lane id=":29.28_0_0" index="0" disallow="pedestrian tram rail_urban rail rail_electric rail_fast ship" speed="11.11" length="0.30" width="3.75" shape="3.12,609.96,11.73 3.12,609.67,11.73"/>
  </edge>
  <edge id=":3_0" function="internal">
    <lane id=":3_0_0" index="0" disallow="pedestrian tram rail_urban rail rail_electric rail_fast ship" speed="15.97" length="129.35" width="3.75" shape="825.46,1073.46,20.00 734.77,981.23,20.00"/>
  </edge>
  <edge id=":3_1" function="internal">
    <lane id=":3_1_0" index="0" disallow="pedestrian tram rail_urban rail rail_electric rail_fast ship" speed="22.22" length="129.44" width="3.75" shape="825.46,1073.46,20.00 737.61,978.38,20.00"/>
    <lane id=":3_1_1" index="1" disallow="pedestrian tram rail_urban rail rail_electric rail_fast ship" speed="22.22" length="129.44" width="3.75" shape="828.21,1070.91,20.00 740.37,975.84,20.00"/>
    <lane id=":3_1_2" index="2" disallow="pedestrian tram rail_urban rail rail_electric rail_fast ship" speed="22.22" length="129.44" width="3.75" shape="830.96,1068.36,20.00 743.12,973.30,20.00"/>
  </edge>
  <edge id=":31.30_0" function="internal">
    <lane id=":31.30_0_0" index="0" disallow="pedestrian tram rail_urban rail rail_electric rail_fast ship" speed="8.33" length="0.30" width="3.75" shape="199.17,97.07,5.91 199.47,97.06,5.91"/>
  </edge>
  <edge id=":4_0" function="internal">
    <lane id=":4_0_0" index="0" disallow="pedestrian tram rail_urban rail rail_electric rail_fast ship" speed="15.97" length="48.10" width="3.75" shape="162.94,872.50,0.00 156.78,876.81,0.00 146.49,884.42,0.00 134.94,893.44,0.00 125.00,902.01"/>
  </edge>
  <edge id=":4_1" function="internal">
    <lane id=":4_1_0" index="0" disallow="pedestrian tram rail_urban rail rail_electric rail_fast ship" speed="22.22" length="47.62" width="3.75" shape="159.66,869.38 125.00,902.01"/>
    <lane id=":4_1_1" index="1" disallow="pedestrian tram rail_urban rail rail_electric rail_fast ship" speed="22.22" length="47.62" width="3.75" shape="157.10,866.64 122.43,899.29"/>
    <lane id=":4_1_2" index="2" disallow="pedestrian tram rail_urban rail rail_electric rail_fast ship" speed="22.22" length="47.62" width="3.75" shape="154.53,863.91 119.85,896.56"/>
  </edge>
  <edge id=":5_0" function="internal">
    <lane id=":5_0_0" index="0" disallow="pedestrian tram rail_urban rail rail_electric rail_fast ship" speed="10.42" length="22.51" width="3.75" shape="648.50,907.21,15.93 644.34,904.59,15.92 638.71,901.68,15.90 632.93,899.08,15.89 628.31,897.36,15.88"/>
  </edge>
  <edge id=":5_1" function="internal">
    <lane id=":5_1_0" index="0" disallow="pedestrian tram rail_urban rail rail_electric rail_fast ship" speed="9.72" length="22.74" width="3.75" shape="648.50,907.21,15.93 630.23,893.66,15.89"/>
  </edge>
  <edge id=":6_0" function="internal">
    <lane id=":6_0_0" index="0" disallow="pedestrian tram rail_urban rail rail_electric rail_fast ship" speed="22.22" length="86.30" width="3.75" shape="925.87,287.27,0.00 937.92,281.21,0.00 960.96,269.34,0.00 985.58,256.43,0.00 1002.34,247.28"/>
  </edge>
  <edge id=":6_1" function="internal">
    <lane id=":6_1_0" index="0" disallow="pedestrian tram rail_urban rail rail_electric rail_fast ship" speed="22.22" length="86.02" width="3.75" shape="928.14,290.79 1002.34,247.28"/>
    <lane id=":6_1_1" index="1" disallow="pedestrian tram rail_urban rail rail_electric rail_fast ship" speed="22.22" length="86.02" width="3.75" shape="930.04,294.03 1004.24,250.51"/>
    <lane id=":6_1_2" index="2" disallow="pedestrian tram rail_urban rail rail_electric rail_fast ship" speed="22.22" length="86.02" width="3.75" shape="931.94,297.26 1006.14,253.75"/>
  </edge>
  <edge id=":6.5_0" function="internal">
    <lane id=":6.5_0_0" index="0" disallow="pedestrian tram rail_urban rail rail_electric rail_fast ship" speed="22.22" length="0.30" width="3.75" shape="452.83,586.66 453.08,586.48"/>
    <lane id=":6.5_0_1" index="1" disallow="pedestrian tram rail_urban rail rail_electric rail_fast ship" speed="22.22" length="0.30" width="3.75" shape="455.04,589.69 455.28,589.52"/>
    <lane id=":6.5_0_2" index="2" disallow="pedestrian tram rail_urban rail rail_electric rail_fast ship" speed="22.22" length="0.30" width="3.75" shape="457.24,592.73 457.48,592.55"/>
  </edge>
  <edge id=":7_0" function="internal">
    <lane id=":7_0_0" index="0" disallow="pedestrian tram rail_urban rail rail_electric rail_fast ship" speed="15.28" length="62.48" width="3.75" shape="899.53,1113.48,20.00 905.43,1121.26,20.00 916.39,1135.19,20.00 928.74,1150.42,20.00 938.78,1162.07,20.00"/>
  </edge>
  <edge id=":7_1" function="internal">
    <lane id=":7_1_0" index="0" disallow="pedestrian tram rail_urban rail rail_electric rail_fast ship" speed="22.22" length="62.10" width="3.75" shape="896.50,1116.59,20.00 938.78,1162.07,20.00"/>
    <lane id=":7_1_1" index="1" disallow="pedestrian tram rail_urban rail rail_electric rail_fast ship" speed="22.22" length="62.10" width="3.75" shape="893.75,1119.14,20.00 936.03,1164.62,20.00"/>
    <lane id=":7_1_2" index="2" disallow="pedestrian tram rail_urban rail rail_electric rail_fast ship" speed="22.22" length="62.10" width="3.75" shape="891.00,1121.69,20.00 933.28,1167.18,20.00"/>
  </edge>
  <edge id=":8_0" function="internal">
    <lane id=":8_0_0" index="0" disallow="pedestrian tram rail_urban rail rail_electric rail_fast ship" speed="8.33" length="3.00" width="3.75" shape="762.25,545.64,6.44 760.72,548.22,6.52"/>
  </edge>
  <edge id=":8_1" function="internal">
    <lane id=":8_1_0" index="0" disallow="pedestrian tram rail_urban rail rail_electric rail_fast ship" speed="12.50" length="3.01" width="3.75" shape="762.25,545.64,6.44 760.71,548.22,6.48"/>
  </edge>
  <edge id=":9_0" function="internal">
    <lane id=":9_0_0" index="0" disallow="pedestrian tram rail_urban rail rail_electric rail_fast ship" speed="14.06" length="18.91" width="3.75" shape="240.81,391.01,19.99 241.43,385.89,20.00 241.13,381.16,20.00 239.92,376.81,20.00 237.79,372.85,20.00"/>
  </edge>
  <edge id=":9_1" function="internal">
    <lane id=":9_1_0" index="0" disallow="pedestrian tram rail_urban rail rail_electric rail_fast ship" speed="22.22" length="16.89" width="3.75" shape="247.35,386.77,20.00 237.79,372.85,20.00"/>
    <lane id=":9_1_1" index="1" disallow="pedestrian tram rail_urban rail rail_electric rail_fast ship" speed="22.22" length="16.89" width="3.75" shape="250.44,384.64,20.00 240.88,370.72,20.00"/>
    <lane id=":9_1_2" index="2" disallow="pedestrian tram rail_urban rail rail_electric rail_fast ship" speed="22.22" length="16.89" width="3.75" shape="253.53,382.52,20.00 243.97,368.60,20.00"/>
  </edge>
  <edge id=":9.10_0" function="internal">
    <lane id=":9.10_0_0" index="0" disallow="pedestrian tram rail_urban rail rail_electric rail_fast ship" speed="22.22" length="0.30" width="3.75" shape="430.04,599.36,20.00 430.23,599.59,20.00"/>
    <lane id=":9.10_0_1" index="1" disallow="pedestrian tram rail_urban rail rail_electric rail_fast ship" speed="22.22" length="0.30" width="3.75" shape="427.12,601.72,20.00 427.31,601.95,20.00"/>
    <lane id=":9.10_0_2" index="2" disallow="pedestrian tram rail_urban rail rail_electric rail_fast ship" speed="22.22" length="0.30" width="3.75" shape="424.21,604.07,20.00 424.40,604.31,20.00"/>
  </edge>
  <edge id="-0" from="0.begin" to="0" priority="1" type="driving" shape="1103.54,202.87 1102.56,203.48 1101.55,204.09 1100.52,204.72 1099.46,205.37 1098.37,206.03 1097.26,206.70 1096.12,207.39 1094.96,208.09 1093.77,208.81 1092.56,209.54 1091.32,210.29 1090.06,211.04 1088.77,211.82 1087.46,212.60 1086.12,213.40 1084.76,214.21 1083.38,215.04 1081.97,215.88 1080.54,216.73 1079.08,217.60 1077.60,218.48 1076.10,219.37 1074.58,220.27 1073.03,221.19 1071.46,222.12 1069.87,223.06 1068.26,224.02 1066.62,224.98 1064.97,225.96 1063.29,226.95 1061.59,227.96 1059.87,228.97 1058.12,230.00 1056.36,231.04 1054.58,232.09 1052.77,233.15 1050.95,234.23 1049.10,235.31 1047.24,236.41 1045.36,237.52 1043.45,238.64 1041.53,239.77 1039.59,240.91 1037.62,242.06 1035.64,243.23 1033.64,244.40 1031.63,245.59 1029.59,246.78 1027.53,247.99 1025.46,249.20 1023.37,250.43 1021.26,251.67 1019.14,252.91 1017.00,254.17 1014.84,255.43 1012.66,256.71 1010.46,258.00 1008.25,259.29 1006.03,260.60 1003.79,261.91 1001.53,263.24 999.25,264.57 996.96,265.91 994.65,267.26 992.33,268.62 990.00,269.99">
    <lane id="-0_0" index="0" disallow="pedestrian tram rail_urban rail rail_electric rail_fast ship" speed="22.22" length="128.00" width="3.75" shape="1108.44,210.87 1107.46,211.47 1106.44,212.09 1105.40,212.73 1104.33,213.38 1103.24,214.04 1102.12,214.72 1100.97,215.41 1099.80,216.12 1098.61,216.84 1097.39,217.57 1096.15,218.32 1094.88,219.08 1093.59,219.86 1092.27,220.65 1090.93,221.45 1089.57,222.26 1088.18,223.09 1086.77,223.93 1085.33,224.79 1083.87,225.66 1082.39,226.54 1080.89,227.43 1079.36,228.34 1077.81,229.25 1076.24,230.19 1074.65,231.13 1073.03,232.09 1071.39,233.05 1069.73,234.03 1068.05,235.03 1066.35,236.03 1064.63,237.05 1062.89,238.08 1061.12,239.12 1059.34,240.17 1057.53,241.23 1055.70,242.31 1053.86,243.39 1051.99,244.49 1050.11,245.60 1048.20,246.72 1046.28,247.85 1044.33,248.99 1042.37,250.15 1040.39,251.31 1038.39,252.49 1036.37,253.67 1034.33,254.87 1032.28,256.07 1030.21,257.29 1028.12,258.52 1026.01,259.75 1023.88,261.00 1021.74,262.26 1019.58,263.52 1017.40,264.80 1015.21,266.08 1013.00,267.38 1010.77,268.69 1008.53,270.00 1006.27,271.32 1003.99,272.66 1001.70,274.00 999.39,275.35 998.20,276.05" type="driving"/>
    <lane id="-0_1" index="1" disallow="pedestrian tram rail_urban rail rail_electric rail_fast ship" speed="22.22" length="128.00" width="3.75" shape="1106.48,207.67 1105.50,208.27 1104.49,208.89 1103.45,209.53 1102.38,210.17 1101.29,210.84 1100.18,211.51 1099.03,212.20 1097.87,212.91 1096.68,213.63 1095.46,214.36 1094.22,215.11 1092.95,215.87 1091.66,216.64 1090.34,217.43 1089.01,218.23 1087.64,219.04 1086.26,219.87 1084.85,220.71 1083.41,221.57 1081.96,222.43 1080.48,223.31 1078.97,224.20 1077.45,225.11 1075.90,226.03 1074.33,226.96 1072.74,227.90 1071.12,228.86 1069.49,229.83 1067.83,230.81 1066.15,231.80 1064.45,232.80 1062.72,233.82 1060.98,234.85 1059.22,235.89 1057.43,236.94 1055.63,238.00 1053.80,239.08 1051.96,240.16 1050.09,241.26 1048.21,242.37 1046.30,243.49 1044.38,244.62 1042.43,245.76 1040.47,246.91 1038.49,248.08 1036.49,249.25 1034.47,250.44 1032.44,251.63 1030.38,252.84 1028.31,254.05 1026.22,255.28 1024.11,256.52 1021.98,257.76 1019.84,259.02 1017.68,260.29 1015.50,261.56 1013.31,262.85 1011.10,264.15 1008.87,265.45 1006.63,266.77 1004.37,268.09 1002.10,269.42 999.80,270.76 997.50,272.12 996.30,272.82" type="driving"/>
    <lane id="-0_2" index="2" disallow="pedestrian tram rail_urban rail rail_electric rail_fast ship" speed="22.22" length="128.00" width="3.75" shape="1104.52,204.47 1103.54,205.07 1102.53,205.69 1101.50,206.32 1100.43,206.97 1099.35,207.63 1098.23,208.31 1097.09,209.00 1095.93,209.70 1094.74,210.42 1093.52,211.15 1092.29,211.89 1091.02,212.65 1089.73,213.42 1088.42,214.21 1087.08,215.01 1085.72,215.82 1084.34,216.65 1082.93,217.49 1081.49,218.34 1080.04,219.21 1078.56,220.09 1077.06,220.98 1075.53,221.89 1073.99,222.80 1072.42,223.73 1070.83,224.68 1069.21,225.63 1067.58,226.60 1065.92,227.58 1064.24,228.57 1062.54,229.57 1060.82,230.59 1059.08,231.62 1057.31,232.66 1055.53,233.71 1053.72,234.77 1051.90,235.84 1050.05,236.93 1048.19,238.03 1046.31,239.14 1044.40,240.26 1042.48,241.39 1040.53,242.53 1038.57,243.68 1036.59,244.84 1034.59,246.02 1032.57,247.20 1030.54,248.40 1028.48,249.60 1026.41,250.82 1024.32,252.05 1022.21,253.28 1020.09,254.53 1017.94,255.79 1015.78,257.05 1013.61,258.33 1011.41,259.61 1009.20,260.91 1006.98,262.22 1004.73,263.53 1002.47,264.85 1000.20,266.19 997.91,267.53 995.60,268.88 994.40,269.58" type="driving"/>
  </edge>
  <edge id="-1" from="0" to="2.1" priority="1" type="driving" shape="990.00,269.99 988.50,270.87 987.01,271.75 985.50,272.63 983.99,273.51 982.48,274.40 980.96,275.29 979.43,276.19 977.90,277.08 976.36,277.99 974.81,278.89 973.26,279.80 971.71,280.71 970.15,281.63 968.58,282.55 967.01,283.47 965.43,284.39 963.85,285.32 962.26,286.25 960.67,287.19 959.07,288.12 957.47,289.06 955.86,290.01 954.25,290.95 952.63,291.90 951.00,292.86 949.38,293.81 947.74,294.77 946.10,295.73 944.46,296.70 942.81,297.66 941.16,298.63 939.50,299.61 937.84,300.58 936.18,301.56 934.51,302.54 932.83,303.53 931.15,304.51 929.47,305.50 927.78,306.49 926.09,307.49 924.39,308.49 922.69,309.49 920.99,310.49 919.28,311.49 917.56,312.50 915.85,313.51 914.13,314.52 912.40,315.54 910.67,316.56 908.94,317.58 907.20,318.60 905.46,319.62 903.72,320.65 901.97,321.68 900.22,322.71 898.46,323.75 896.71,324.78 894.95,325.82 893.18,326.86 891.41,327.90 889.64,328.95 887.86,330.00 886.09,331.04 884.30,332.10 882.52,333.15 880.73,334.20 878.94,335.26 877.15,336.32 875.35,337.38 873.55,338.45 871.75,339.51 869.94,340.58 868.14,341.65 866.32,342.72 864.51,343.79 862.69,344.87 860.88,345.94 859.05,347.02 857.23,348.10 855.40,349.18 853.58,350.26 851.74,351.35 849.91,352.44 848.07,353.52 846.24,354.61 844.40,355.71 842.55,356.80 840.71,357.89 838.86,358.99 837.01,360.09 835.16,361.19 833.31,362.29 831.46,363.39 829.60,364.49 827.74,365.59 825.88,366.70 824.02,367.81 822.16,368.92 820.30,370.03 818.43,371.14 816.56,372.25 814.69,373.36 812.82,374.48 810.95,375.59 809.08,376.71 807.20,377.83 805.33,378.95 803.45,380.07 801.57,381.19 799.69,382.31 797.81,383.43 795.93,384.56 794.05,385.68 792.17,386.81 790.28,387.94 788.40,389.06 786.51,390.19 784.63,391.32 782.74,392.45 780.85,393.58 778.96,394.71 777.07,395.85 775.18,396.98 773.29,398.11 771.40,399.25 769.51,400.38 767.62,401.52 765.73,402.66 763.84,403.79 761.95,404.93 760.06,406.07 758.16,407.21 756.27,408.35 754.38,409.49 752.49,410.63 750.60,411.77 748.70,412.91 746.81,414.05 744.92,415.19 743.03,416.33 741.14,417.48 739.25,418.62 737.36,419.76 735.47,420.90 733.58,422.05 731.69,423.19 729.80,424.33 727.92,425.48 726.03,426.62 724.14,427.76 722.26,428.91 720.37,430.05 718.49,431.20 716.61,432.34 714.73,433.48 712.85,434.63 710.97,435.77 709.09,436.92 707.21,438.06 705.33,439.20 703.46,440.35 701.58,441.49 699.71,442.63 697.84,443.77 695.97,444.92 694.10,446.06 692.23,447.20 690.37,448.34 688.51,449.48 686.64,450.62 684.78,451.76 682.92,452.90 681.07,454.04 679.21,455.18 677.36,456.32 675.51,457.46 673.66,458.59 671.81,459.73 669.96,460.87 668.12,462.00 666.28,463.14 664.44,464.27 662.60,465.41 660.77,466.54 658.94,467.67 657.11,468.80 655.28,469.93 653.45,471.06 651.63,472.19 649.81,473.32 647.99,474.45 646.18,475.57 644.37,476.70 642.56,477.82 640.75,478.95 638.95,480.07 637.14,481.19 635.35,482.31 633.55,483.43 631.76,484.55 629.97,485.67 628.18,486.78 626.40,487.90 624.62,489.01 622.84,490.12 621.07,491.24 619.30,492.35 617.53,493.45 615.77,494.56 614.01,495.67 612.25,496.77 610.50,497.88 608.75,498.98 607.00,500.08 605.26,501.18 603.52,502.28 601.79,503.37 600.06,504.47 598.33,505.56 596.61,506.66 594.89,507.75 593.17,508.83 591.46,509.92 589.75,511.01 588.05,512.09 586.35,513.17 584.66,514.25 582.97,515.33 581.28,516.41 579.60,517.48 577.92,518.56 576.25,519.63 574.58,520.70 572.92,521.77 571.26,522.83 569.60,523.90 567.95,524.96 566.31,526.02 564.67,527.08 563.03,528.13 561.40,529.19 559.77,530.24 558.15,531.29 556.54,532.34 554.93,533.38 553.32,534.43 551.72,535.47 550.12,536.51 548.53,537.55 546.95,538.58 545.37,539.61 543.79,540.64 542.22,541.67 540.66,542.70 539.10,543.72 537.55,544.74 536.00,545.76 534.46,546.78 532.92,547.79 531.39,548.80 529.87,549.81 528.35,550.81 526.84,551.82 525.33,552.82 523.83,553.82 522.34,554.81 520.85,555.81 519.36,556.80 517.89,557.79 516.42,558.77 514.95,559.75 513.49,560.73 512.04,561.71 510.60,562.68 509.16,563.65 507.73,564.62 506.30,565.59 504.88,566.55 503.47,567.51 502.06,568.47 500.66,569.42 499.27,570.37 497.88,571.32 496.50,572.26 495.13,573.21 493.76,574.14 492.40,575.08 491.05,576.01 489.71,576.94 488.37,577.87 487.04,578.79 485.72,579.71 484.40,580.63 483.09,581.54 481.79,582.45 480.49,583.36 479.21,584.26 477.93,585.16 476.65,586.06 475.39,586.95 474.13,587.84 472.88,588.72 471.64,589.61 470.41,590.49 469.18,591.36 467.96,592.23 466.75,593.10 465.55,593.97 464.36,594.83 463.17,595.69 461.99,596.54 460.82,597.39">