<?xml version='1.0' encoding='UTF-8'?>
<!-- generated on 2022-11-12 22:59:01 by Eclipse SUMO netconvert Version 1.13.0
<configuration xmlns:xsi="http://www.w3.org/2001/XMLSchema-instance" xsi:noNamespaceSchemaLocation="http://sumo.dlr.de/xsd/netconvertConfiguration.xsd">

    <input>
        <opendrive-files value="map_v4\7\3523\3523.xodr"/>
    </input>

    <output>
        <output-file value="C:\Users\LinGe\AppData\Local\Temp\tmpvl9d1gmm\3523.net.xml"/>
    </output>

    <processing>
        <geometry.max-grade.fix value="false"/>
    </processing>

    <tls_building>
        <tls.left-green.time value="0"/>
    </tls_building>

    <junctions>
        <rectangular-lane-cut value="true"/>
    </junctions>

    <report>
        <aggregate-warnings value="5"/>
    </report>

</configuration>
-->
<net xmlns:xsi="http://www.w3.org/2001/XMLSchema-instance" version="1.9" junctionCornerDetail="5" rectangularLaneCut="true" limitTurnSpeed="5.50" xsi:noNamespaceSchemaLocation="http://sumo.dlr.de/xsd/net_file.xsd">
  <location netOffset="1.56,101.26" convBoundary="0.00,0.00,1102.73,1302.51" origBoundary="-1.56,-101.26,1101.18,1201.26" projParameter="!"/>
  <type id="bidirectional" priority="1" speed="1.39" disallow="pedestrian tram rail_urban rail rail_electric rail_fast ship" width="3.65"/>
  <type id="border" priority="0" speed="1.39" disallow="all" discard="1" width="0.10"/>
  <type id="driving" priority="1" speed="13.89" disallow="pedestrian tram rail_urban rail rail_electric rail_fast ship" width="3.65"/>
  <type id="entry" priority="1" speed="22.22" disallow="pedestrian tram rail_urban rail rail_electric rail_fast ship" width="3.65"/>
  <type id="exit" priority="1" speed="22.22" disallow="pedestrian tram rail_urban rail rail_electric rail_fast ship" width="3.65"/>
  <type id="median" priority="0" speed="1.39" disallow="all" discard="1" width="0.10"/>
  <type id="mwyEntry" priority="1" speed="22.22" allow="private emergency authority army vip passenger hov taxi bus coach delivery truck trailer motorcycle evehicle custom1 custom2" width="3.65"/>
  <type id="mwyExit" priority="1" speed="22.22" allow="private emergency authority army vip passenger hov taxi bus coach delivery truck trailer motorcycle evehicle custom1 custom2" width="3.65"/>
  <type id="none" priority="0" speed="1.39" disallow="all" discard="1" width="1.00"/>
  <type id="offRamp" priority="1" speed="22.22" allow="private emergency authority army vip passenger hov taxi bus coach delivery truck trailer motorcycle evehicle custom1 custom2" width="3.65"/>
  <type id="onRamp" priority="1" speed="22.22" allow="private emergency authority army vip passenger hov taxi bus coach delivery truck trailer motorcycle evehicle custom1 custom2" width="3.65"/>
  <type id="parking" priority="1" speed="1.39" disallow="pedestrian tram rail_urban rail rail_electric rail_fast ship" width="2.50"/>
  <type id="rail" priority="3" speed="33.33" allow="rail_urban rail rail_electric rail_fast" width="3.65"/>
  <type id="restricted" priority="0" speed="13.89" disallow="all" width="3.65"/>
  <type id="roadWorks" priority="0" speed="1.39" allow="authority" width="3.65"/>
  <type id="shoulder" priority="0" speed="1.39" disallow="all" discard="1" width="1.00"/>
  <type id="special1" priority="1" speed="22.22" allow="custom1" discard="1" width="3.65"/>
  <type id="special2" priority="1" speed="22.22" allow="custom2" discard="1" width="3.65"/>
  <type id="special3" priority="1" speed="22.22" allow="custom1 custom2" discard="1" width="3.65"/>
  <type id="stop" priority="1" speed="13.89" disallow="pedestrian tram rail_urban rail rail_electric rail_fast ship" width="3.65"/>
  <type id="tram" priority="2" speed="13.89" allow="tram" width="3.65"/>
  <edge id=":0_0" function="internal">
    <lane id=":0_0_0" index="0" disallow="pedestrian tram rail_urban rail rail_electric rail_fast ship" speed="19.44" length="76.91" width="3.75" shape="944.57,363.61 932.00,375.98 914.79,393.51 899.03,409.84 890.78,418.58"/>
  </edge>
  <edge id=":0_1" function="internal">
    <lane id=":0_1_0" index="0" disallow="pedestrian tram rail_urban rail rail_electric rail_fast ship" speed="22.22" length="77.10" width="3.75" shape="944.57,363.61 887.68,415.73"/>
    <lane id=":0_1_1" index="1" disallow="pedestrian tram rail_urban rail rail_electric rail_fast ship" speed="22.22" length="77.10" width="3.75" shape="942.02,360.87 885.17,412.95"/>
    <lane id=":0_1_2" index="2" disallow="pedestrian tram rail_urban rail rail_electric rail_fast ship" speed="22.22" length="77.10" width="3.75" shape="939.47,358.12 882.66,410.16"/>
  </edge>
  <edge id=":1_0" function="internal">
    <lane id=":1_0_0" index="0" disallow="pedestrian tram rail_urban rail rail_electric rail_fast ship" speed="16.67" length="21.10" width="3.75" shape="175.47,881.44 181.12,877.40,0.00 185.07,873.49,0.00 187.81,869.79,0.01 189.85,866.36,0.01"/>
  </edge>
  <edge id=":1_1" function="internal">
    <lane id=":1_1_0" index="0" disallow="pedestrian tram rail_urban rail rail_electric rail_fast ship" speed="22.22" length="21.50" width="3.75" shape="175.47,881.44 193.81,870.22"/>
    <lane id=":1_1_1" index="1" disallow="pedestrian tram rail_urban rail rail_electric rail_fast ship" speed="22.22" length="21.50" width="3.75" shape="177.42,884.64 195.77,873.42"/>
    <lane id=":1_1_2" index="2" disallow="pedestrian tram rail_urban rail rail_electric rail_fast ship" speed="22.22" length="21.50" width="3.75" shape="179.38,887.84 197.72,876.62"/>
  </edge>
  <edge id=":13.12_0" function="internal">
    <lane id=":13.12_0_0" index="0" disallow="pedestrian tram rail_urban rail rail_electric rail_fast ship" speed="22.22" length="0.30" width="3.75" shape="454.76,660.49,20.00 454.57,660.25,20.00"/>
    <lane id=":13.12_0_1" index="1" disallow="pedestrian tram rail_urban rail rail_electric rail_fast ship" speed="22.22" length="0.30" width="3.75" shape="457.67,658.13,20.00 457.48,657.90,20.00"/>
    <lane id=":13.12_0_2" index="2" disallow="pedestrian tram rail_urban rail rail_electric rail_fast ship" speed="22.22" length="0.30" width="3.75" shape="460.59,655.77,20.00 460.40,655.54,20.00"/>
  </edge>
  <edge id=":16.15_0" function="internal">
    <lane id=":16.15_0_0" index="0" disallow="pedestrian tram rail_urban rail rail_electric rail_fast ship" speed="11.11" length="0.29" width="3.75" shape="481.35,852.17,7.42 481.08,852.07,7.41"/>
  </edge>
  <edge id=":18.17_0" function="internal">
    <lane id=":18.17_0_0" index="0" disallow="pedestrian tram rail_urban rail rail_electric rail_fast ship" speed="16.67" length="0.30" width="3.75" shape="777.03,647.12,7.78 777.02,647.41,7.79"/>
  </edge>
  <edge id=":2_0" function="internal">
    <lane id=":2_0_0" index="0" disallow="pedestrian tram rail_urban rail rail_electric rail_fast ship" speed="16.67" length="113.48" width="3.75" shape="936.83,1194.26,20.00 856.67,1113.94,20.00"/>
  </edge>
  <edge id=":2_1" function="internal">
    <lane id=":2_1_0" index="0" disallow="pedestrian tram rail_urban rail rail_electric rail_fast ship" speed="22.22" length="113.56" width="3.75" shape="936.83,1194.26,20.00 859.51,1111.08,20.00"/>
    <lane id=":2_1_1" index="1" disallow="pedestrian tram rail_urban rail rail_electric rail_fast ship" speed="22.22" length="113.56" width="3.75" shape="939.58,1191.70,20.00 862.26,1108.53,20.00"/>
    <lane id=":2_1_2" index="2" disallow="pedestrian tram rail_urban rail rail_electric rail_fast ship" speed="22.22" length="113.56" width="3.75" shape="942.32,1189.15,20.00 865.01,1105.98,20.00"/>
  </edge>
  <edge id=":2.1_0" function="internal">
    <lane id=":2.1_0_0" index="0" disallow="pedestrian tram rail_urban rail rail_electric rail_fast ship" speed="22.22" length="0.30" width="3.75" shape="687.85,581.16 687.60,581.34"/>
    <lane id=":2.1_0_1" index="1" disallow="pedestrian tram rail_urban rail rail_electric rail_fast ship" speed="22.22" length="0.30" width="3.75" shape="685.64,578.13 685.39,578.31"/>
    <lane id=":2.1_0_2" index="2" disallow="pedestrian tram rail_urban rail rail_electric rail_fast ship" speed="22.22" length="0.30" width="3.75" shape="683.43,575.10 683.19,575.28"/>
  </edge>
  <edge id=":21.20_0" function="internal">
    <lane id=":21.20_0_0" index="0" disallow="pedestrian tram rail_urban rail rail_electric rail_fast ship" speed="9.72" length="0.29" width="3.75" shape="44.27,235.21,5.94 44.42,234.96,5.94"/>
  </edge>
  <edge id=":23.22_0" function="internal">
    <lane id=":23.22_0_0" index="0" disallow="pedestrian tram rail_urban rail rail_electric rail_fast ship" speed="11.11" length="0.29" width="3.75" shape="425.06,290.34,6.18 425.35,290.34,6.19"/>
  </edge>
  <edge id=":3_0" function="internal">
    <lane id=":3_0_0" index="0" disallow="pedestrian tram rail_urban rail rail_electric rail_fast ship" speed="16.67" length="55.20" width="3.75" shape="205.51,894.88,0.00 197.68,898.49,0.00 183.97,905.13,0.00 168.73,912.87,0.00 156.28,919.79"/>
  </edge>
  <edge id=":3_1" function="internal">
    <lane id=":3_1_0" index="0" disallow="pedestrian tram rail_urban rail rail_electric rail_fast ship" speed="22.22" length="54.78" width="3.75" shape="203.03,891.24 156.28,919.79"/>
    <lane id=":3_1_1" index="1" disallow="pedestrian tram rail_urban rail rail_electric rail_fast ship" speed="22.22" length="54.78" width="3.75" shape="201.08,888.04 154.33,916.59"/>
    <lane id=":3_1_2" index="2" disallow="pedestrian tram rail_urban rail rail_electric rail_fast ship" speed="22.22" length="54.78" width="3.75" shape="199.12,884.84 152.37,913.39"/>
  </edge>
  <edge id=":4_0" function="internal">
    <lane id=":4_0_0" index="0" disallow="pedestrian tram rail_urban rail rail_electric rail_fast ship" speed="11.11" length="3.00" width="3.75" shape="605.38,919.52,12.31 602.85,917.91,12.21"/>
  </edge>
  <edge id=":4_1" function="internal">
    <lane id=":4_1_0" index="0" disallow="pedestrian tram rail_urban rail rail_electric rail_fast ship" speed="10.42" length="3.00" width="3.75" shape="605.38,919.52,12.31 602.85,917.91,12.26"/>
  </edge>
  <edge id=":5_0" function="internal">
    <lane id=":5_0_0" index="0" disallow="pedestrian tram rail_urban rail rail_electric rail_fast ship" speed="19.44" length="35.58" width="3.75" shape="904.42,1118.94,19.84 907.20,1123.78,19.87 911.71,1130.98,19.90 917.68,1139.43,19.95 924.84,1147.98,20.00"/>
  </edge>
  <edge id=":5_1" function="internal">
    <lane id=":5_1_0" index="0" disallow="pedestrian tram rail_urban rail rail_electric rail_fast ship" speed="22.22" length="34.88" width="3.75" shape="901.09,1122.44,20.00 924.84,1147.98,20.00"/>
    <lane id=":5_1_1" index="1" disallow="pedestrian tram rail_urban rail rail_electric rail_fast ship" speed="22.22" length="34.88" width="3.75" shape="898.35,1124.99,20.00 922.09,1150.54,20.00"/>
    <lane id=":5_1_2" index="2" disallow="pedestrian tram rail_urban rail rail_electric rail_fast ship" speed="22.22" length="34.88" width="3.75" shape="895.60,1127.54,20.00 919.35,1153.09,20.00"/>
  </edge>
  <edge id=":6_0" function="internal">
    <lane id=":6_0_0" index="0" disallow="pedestrian tram rail_urban rail rail_electric rail_fast ship" speed="14.47" length="18.72" width="3.75" shape="895.87,367.27,0.00 899.74,367.31,0.00 903.89,366.84,0.00 908.34,365.20,0.00 913.15,361.73"/>
  </edge>
  <edge id=":6_1" function="internal">
    <lane id=":6_1_0" index="0" disallow="pedestrian tram rail_urban rail rail_electric rail_fast ship" speed="22.22" length="16.63" width="3.75" shape="900.92,372.98 913.15,361.73"/>
    <lane id=":6_1_1" index="1" disallow="pedestrian tram rail_urban rail rail_electric rail_fast ship" speed="22.22" length="16.63" width="3.75" shape="903.45,375.74 915.70,364.48"/>
    <lane id=":6_1_2" index="2" disallow="pedestrian tram rail_urban rail rail_electric rail_fast ship" speed="22.22" length="16.63" width="3.75" shape="905.98,378.50 918.24,367.24"/>
  </edge>
  <edge id=":6.5_0" function="internal">
    <lane id=":6.5_0_0" index="0" disallow="pedestrian tram rail_urban rail rail_electric rail_fast ship" speed="22.22" length="0.30" width="3.75" shape="674.22,562.94 674.46,562.77"/>
    <lane id=":6.5_0_1" index="1" disallow="pedestrian tram rail_urban rail rail_electric rail_fast ship" speed="22.22" length="0.30" width="3.75" shape="676.42,565.98 676.67,565.80"/>
    <lane id=":6.5_0_2" index="2" disallow="pedestrian tram rail_urban rail rail_electric rail_fast ship" speed="22.22" length="0.30" width="3.75" shape="678.63,569.01 678.87,568.83"/>
  </edge>
  <edge id=":7_0" function="internal">
    <lane id=":7_0_0" index="0" disallow="pedestrian tram rail_urban rail rail_electric rail_fast ship" speed="16.67" length="99.02" width="3.75" shape="796.17,793.34,13.21 820.04,889.44,13.25"/>
  </edge>
  <edge id=":7_1" function="internal">
    <lane id=":7_1_0" index="0" disallow="pedestrian tram rail_urban rail rail_electric rail_fast ship" speed="13.89" length="98.85" width="3.75" shape="792.46,794.52,13.05 820.04,889.44,13.25"/>
  </edge>
  <edge id=":9.8_0" function="internal">
    <lane id=":9.8_0_0" index="0" disallow="pedestrian tram rail_urban rail rail_electric rail_fast ship" speed="22.22" length="0.30" width="3.75" shape="472.27,645.96,20.00 472.45,646.19,20.00"/>
    <lane id=":9.8_0_1" index="1" disallow="pedestrian tram rail_urban rail rail_electric rail_fast ship" speed="22.22" length="0.30" width="3.75" shape="469.35,648.32,20.00 469.54,648.55,20.00"/>
    <lane id=":9.8_0_2" index="2" disallow="pedestrian tram rail_urban rail rail_electric rail_fast ship" speed="22.22" length="0.30" width="3.75" shape="466.43,650.67,20.00 466.62,650.91,20.00"/>
  </edge>
  <edge id="-0" from="0.begin" to="0" priority="1" type="driving" shape="1102.73,202.87 1101.79,203.70 1100.84,204.55 1099.88,205.40 1098.91,206.27 1097.92,207.15 1096.93,208.04 1095.92,208.94 1094.91,209.85 1093.88,210.78 1092.84,211.72 1091.79,212.67 1090.73,213.63 1089.67,214.60 1088.58,215.59 1087.49,216.58 1086.39,217.59 1085.28,218.61 1084.16,219.64 1083.03,220.68 1081.89,221.73 1080.73,222.79 1079.57,223.86 1078.40,224.95 1077.22,226.04 1076.02,227.15 1074.82,228.26 1073.61,229.39 1072.39,230.52 1071.16,231.67 1069.92,232.83 1068.67,233.99 1067.41,235.17 1066.14,236.35 1064.86,237.55 1063.57,238.76 1062.27,239.97 1060.97,241.20 1059.65,242.43 1058.33,243.67 1056.99,244.93 1055.65,246.19 1054.30,247.46 1052.94,248.74 1051.57,250.03 1050.19,251.33 1048.80,252.64 1047.41,253.95 1046.00,255.28 1044.59,256.61 1043.17,257.95 1041.74,259.30 1040.30,260.66 1038.86,262.03 1037.40,263.40 1035.94,264.78 1034.47,266.17 1032.99,267.57 1031.50,268.98 1030.01,270.39 1028.50,271.82 1026.99,273.25 1025.47,274.68 1023.95,276.13 1022.41,277.58 1020.87,279.04 1019.32,280.51 1017.76,281.98 1016.20,283.46 1014.63,284.95 1013.05,286.44 1011.46,287.94 1009.87,289.45 1008.27,290.96 1006.66,292.48 1005.04,294.01 1003.42,295.55 1001.79,297.09 1000.16,298.63 998.51,300.18 996.86,301.74 995.21,303.31 993.54,304.88 991.87,306.45 990.20,308.04 988.51,309.62 986.82,311.22 985.13,312.81 983.43,314.42 981.72,316.03 980.00,317.64 978.28,319.26 976.55,320.89 974.82,322.52 973.08,324.15 971.34,325.79 969.59,327.43 967.83,329.08 966.07,330.74 964.30,332.39 962.52,334.06 960.74,335.72 958.96,337.39 957.17,339.07 955.37,340.75 953.57,342.43 951.76,344.12 949.95,345.81 948.13,347.50 946.31,349.20 944.48,350.90 942.65,352.61 940.81,354.32 938.97,356.03 937.12,357.74 935.27,359.46">
    <lane id="-0_0" index="0" disallow="pedestrian tram rail_urban rail rail_electric rail_fast ship" speed="22.22" length="225.14" width="3.75" shape="1108.94,209.90 1108.00,210.73 1107.06,211.56 1106.11,212.40 1105.15,213.26 1104.17,214.13 1103.19,215.02 1102.19,215.91 1101.18,216.82 1100.16,217.74 1099.13,218.67 1098.09,219.61 1097.04,220.57 1095.98,221.53 1094.90,222.51 1093.82,223.50 1092.72,224.51 1091.62,225.52 1090.50,226.54 1089.37,227.58 1088.24,228.62 1087.09,229.68 1085.93,230.75 1084.76,231.83 1083.59,232.92 1082.40,234.02 1081.20,235.13 1079.99,236.26 1078.77,237.39 1077.55,238.53 1076.31,239.68 1075.06,240.85 1073.81,242.02 1072.54,243.20 1071.26,244.40 1069.98,245.60 1068.68,246.81 1067.38,248.03 1066.07,249.27 1064.74,250.51 1063.41,251.76 1062.07,253.02 1060.72,254.29 1059.36,255.57 1058.00,256.86 1056.62,258.15 1055.23,259.46 1053.84,260.77 1052.44,262.10 1051.03,263.43 1049.60,264.77 1048.18,266.12 1046.74,267.47 1045.29,268.84 1043.84,270.21 1042.38,271.60 1040.91,272.99 1039.43,274.38 1037.94,275.79 1036.45,277.20 1034.95,278.63 1033.43,280.06 1031.92,281.49 1030.39,282.94 1028.86,284.39 1027.31,285.85 1025.76,287.31 1024.21,288.79 1022.64,290.27 1021.07,291.76 1019.49,293.25 1017.90,294.75 1016.31,296.26 1014.71,297.77 1013.10,299.30 1011.48,300.82 1009.86,302.36 1008.23,303.90 1006.59,305.45 1004.95,307.00 1003.30,308.56 1001.64,310.12 999.98,311.70 998.31,313.27 996.63,314.85 994.95,316.44 993.25,318.04 991.56,319.64 989.85,321.24 988.14,322.85 986.43,324.47 984.71,326.09 982.98,327.72 981.24,329.35 979.50,330.98 977.75,332.62 976.00,334.27 974.24,335.92 972.48,337.57 970.71,339.23 968.93,340.90 967.15,342.57 965.36,344.24 963.57,345.92 961.77,347.60 959.97,349.28 958.16,350.97 956.34,352.66 954.52,354.36 952.70,356.06 950.87,357.76 949.03,359.47 947.19,361.18 945.35,362.90 944.57,363.61" type="driving"/>
    <lane id="-0_1" index="1" disallow="pedestrian tram rail_urban rail rail_electric rail_fast ship" speed="22.22" length="225.14" width="3.75" shape="1106.46,207.09 1105.52,207.92 1104.58,208.75 1103.62,209.60 1102.65,210.46 1101.67,211.34 1100.68,212.22 1099.68,213.12 1098.67,214.03 1097.65,214.95 1096.62,215.89 1095.57,216.83 1094.52,217.79 1093.45,218.76 1092.38,219.74 1091.29,220.74 1090.19,221.74 1089.08,222.75 1087.96,223.78 1086.84,224.82 1085.70,225.87 1084.55,226.93 1083.39,228.00 1082.22,229.08 1081.04,230.17 1079.85,231.27 1078.65,232.38 1077.44,233.51 1076.22,234.64 1074.99,235.79 1073.75,236.94 1072.50,238.11 1071.25,239.28 1069.98,240.46 1068.70,241.66 1067.42,242.86 1066.12,244.08 1064.81,245.30 1063.50,246.53 1062.18,247.77 1060.84,249.03 1059.50,250.29 1058.15,251.56 1056.79,252.84 1055.42,254.13 1054.05,255.42 1052.66,256.73 1051.27,258.04 1049.86,259.37 1048.45,260.70 1047.03,262.04 1045.60,263.39 1044.16,264.75 1042.72,266.11 1041.26,267.49 1039.80,268.87 1038.33,270.26 1036.85,271.66 1035.37,273.07 1033.87,274.48 1032.37,275.90 1030.86,277.33 1029.34,278.77 1027.81,280.21 1026.28,281.66 1024.74,283.12 1023.19,284.59 1021.63,286.06 1020.07,287.54 1018.49,289.03 1016.91,290.53 1015.33,292.03 1013.73,293.54 1012.13,295.05 1010.52,296.57 1008.91,298.10 1007.29,299.63 1005.66,301.17 1004.02,302.72 1002.38,304.27 1000.73,305.83 999.07,307.40 997.40,308.97 995.73,310.54 994.06,312.13 992.37,313.72 990.68,315.31 988.99,316.91 987.28,318.51 985.57,320.12 983.86,321.74 982.14,323.36 980.41,324.98 978.67,326.61 976.93,328.25 975.19,329.89 973.44,331.53 971.68,333.18 969.91,334.84 968.14,336.50 966.37,338.16 964.59,339.83 962.80,341.50 961.01,343.18 959.21,344.86 957.41,346.54 955.60,348.23 953.79,349.92 951.97,351.62 950.14,353.32 948.31,355.02 946.48,356.73 944.64,358.44 942.79,360.15 942.02,360.87" type="driving"/>
    <lane id="-0_2" index="2" disallow="pedestrian tram rail_urban rail rail_electric rail_fast ship" speed="22.22" length="225.14" width="3.75" shape="1103.97,204.28 1103.04,205.11 1102.09,205.95 1101.13,206.80 1100.16,207.67 1099.17,208.54 1098.18,209.43 1097.18,210.33 1096.16,211.25 1095.14,212.17 1094.10,213.11 1093.05,214.06 1092.00,215.02 1090.93,215.99 1089.85,216.97 1088.76,217.97 1087.66,218.97 1086.55,219.99 1085.43,221.02 1084.30,222.06 1083.16,223.11 1082.00,224.17 1080.84,225.24 1079.67,226.32 1078.49,227.42 1077.30,228.52 1076.10,229.64 1074.89,230.76 1073.67,231.90 1072.44,233.04 1071.20,234.20 1069.95,235.36 1068.69,236.54 1067.42,237.72 1066.14,238.92 1064.85,240.13 1063.56,241.34 1062.25,242.56 1060.93,243.80 1059.61,245.04 1058.28,246.29 1056.93,247.56 1055.58,248.83 1054.22,250.11 1052.85,251.40 1051.48,252.69 1050.09,254.00 1048.69,255.32 1047.29,256.64 1045.88,257.97 1044.46,259.31 1043.03,260.66 1041.59,262.02 1040.14,263.39 1038.69,264.76 1037.23,266.15 1035.75,267.54 1034.28,268.94 1032.79,270.34 1031.29,271.76 1029.79,273.18 1028.28,274.61 1026.76,276.04 1025.23,277.49 1023.70,278.94 1022.16,280.40 1020.61,281.87 1019.05,283.34 1017.49,284.82 1015.92,286.31 1014.34,287.80 1012.75,289.30 1011.16,290.81 1009.56,292.33 1007.95,293.85 1006.33,295.37 1004.71,296.91 1003.08,298.45 1001.44,300.00 999.80,301.55 998.15,303.11 996.49,304.67 994.83,306.24 993.16,307.82 991.48,309.40 989.80,310.99 988.11,312.58 986.41,314.18 984.71,315.78 983.00,317.39 981.29,319.01 979.57,320.63 977.84,322.25 976.11,323.88 974.37,325.52 972.62,327.16 970.87,328.80 969.11,330.45 967.35,332.10 965.58,333.76 963.80,335.42 962.02,337.09 960.24,338.76 958.45,340.44 956.65,342.12 954.85,343.80 953.04,345.49 951.23,347.18 949.41,348.87 947.59,350.57 945.76,352.27 943.92,353.98 942.09,355.69 940.24,357.40 939.47,358.12" type="driving"/>
  </edge>
  <edge id="-1" from="0" to="2.1" priority="1" type="driving" shape="935.27,359.46 933.86,360.77 932.44,362.08 931.03,363.39 929.61,364.70 928.19,366.01 926.77,367.33 925.34,368.64 923.92,369.96 922.48,371.28 921.05,372.60 919.62,373.92 918.18,375.25 916.74,376.57 915.29,377.90 913.85,379.23 912.40,380.56 910.95,381.89 909.50,383.22 908.04,384.55 906.59,385.88 905.13,387.22 903.66,388.56 902.20,389.89 900.73,391.23 899.27,392.57 897.80,393.91 896.32,395.25 894.85,396.59 893.37,397.93 891.89,399.28 890.41,400.62 888.93,401.96 887.44,403.31 885.96,404.65 884.47,406.00 882.98,407.35 881.49,408.69 879.99,410.04 878.50,411.39 877.00,412.74 875.50,414.09 874.00,415.44 872.49,416.79 870.99,418.14 869.48,419.49 867.97,420.84 866.46,422.19 864.95,423.54 863.44,424.89 861.92,426.24 860.41,427.59 858.89,428.94 857.37,430.29 855.85,431.64 854.33,432.99 852.81,434.34 851.28,435.69 849.76,437.04 848.23,438.39 846.70,439.74 845.17,441.09 843.64,442.43 842.10,443.78 840.57,445.13 839.04,446.48 837.50,447.82 835.96,449.17 834.42,450.51 832.88,451.86 831.34,453.20 829.80,454.55 828.26,455.89 826.72,457.23 825.17,458.57 823.63,459.91 822.08,461.25 820.53,462.59 818.98,463.93 817.43,465.26 815.88,466.60 814.33,467.93 812.78,469.26 811.23,470.60 809.68,471.93 808.12,473.26 806.57,474.58 805.01,475.91 803.46,477.24 801.90,478.56 800.35,479.89 798.79,481.21 797.23,482.53 795.67,483.85 794.11,485.16 792.55,486.48 790.99,487.79 789.43,489.10 787.87,490.42 786.31,491.72 784.75,493.03 783.19,494.34 781.63,495.64 780.07,496.94 778.50,498.24 776.94,499.54 775.38,500.84 773.82,502.13 772.25,503.42 770.69,504.71 769.13,506.00 767.56,507.29 766.00,508.57 764.44,509.85 762.87,511.13 761.31,512.41 759.75,513.68 758.18,514.95 756.62,516.22 755.06,517.49 753.50,518.76 751.93,520.02 750.37,521.28 748.81,522.54 747.25,523.79 745.69,525.04 744.12,526.29 742.56,527.54 741.00,528.78 739.44,530.02 737.88,531.26 736.32,532.50 734.76,533.73 733.21,534.96 731.65,536.19 730.09,537.41 728.53,538.63 726.98,539.85 725.42,541.06 723.87,542.28 722.31,543.48 720.76,544.69 719.21,545.89 717.65,547.09 716.10,548.29 714.55,549.48 713.00,550.67 711.45,551.85 709.90,553.03 708.36,554.21 706.81,555.39 705.26,556.56 703.72,557.72 702.18,558.89 700.63,560.05 699.09,561.21 697.55,562.36 696.01,563.51 694.47,564.65 692.94,565.79 691.40,566.93 689.86,568.06 688.33,569.19 686.80,570.32 685.27,571.44 683.74,572.56 682.21,573.67">
    <lane id="-1_0" index="0" disallow="pedestrian tram rail_urban rail rail_electric rail_fast ship" speed="22.22" length="259.15" width="3.75" shape="887.68,415.73 886.27,417.00 884.77,418.36 883.27,419.71 881.77,421.06 880.26,422.41 878.75,423.76 877.25,425.12 875.74,426.47 874.23,427.82 872.71,429.18 871.20,430.53 869.68,431.88 868.16,433.24 866.64,434.59 865.12,435.94 863.60,437.30 862.07,438.65 860.55,440.00 859.02,441.36 857.49,442.71 855.96,444.06 854.43,445.42 852.90,446.77 851.37,448.12 849.83,449.47 848.29,450.82 846.76,452.17 845.22,453.53 843.68,454.88 842.14,456.22 840.59,457.57 839.05,458.92 837.50,460.27 835.96,461.62 834.41,462.96 832.86,464.31 831.31,465.65 829.77,467.00 828.21,468.34 826.66,469.68 825.11,471.02 823.56,472.36 822.00,473.70 820.45,475.04 818.89,476.38 817.33,477.71 815.78,479.05 814.22,480.38 812.66,481.71 811.10,483.05 809.54,484.38 807.98,485.70 806.41,487.03 804.85,488.36 803.29,489.68 801.73,491.00 800.16,492.33 798.60,493.65 797.03,494.96 795.47,496.28 793.90,497.60 792.33,498.91 790.77,500.22 789.20,501.53 787.63,502.84 786.07,504.15 784.50,505.45 782.93,506.75 781.36,508.05 779.79,509.35 778.22,510.65 776.65,511.95 775.09,513.24 773.52,514.53 771.95,515.82 770.38,517.10 768.81,518.39 767.24,519.67 765.67,520.95 764.10,522.23 762.53,523.50 760.96,524.77 759.39,526.05 757.82,527.31 756.25,528.58 754.68,529.84 753.12,531.10 751.55,532.36 749.98,533.61 748.41,534.87 746.84,536.12 745.28,537.36 743.71,538.61 742.14,539.85 740.58,541.09 739.01,542.32 737.44,543.56 735.88,544.79 734.32,546.01 732.75,547.24 731.19,548.46 729.63,549.67 728.06,550.89 726.50,552.10 724.94,553.31 723.38,554.51 721.82,555.71 720.26,556.91 718.70,558.11 717.14,559.30 715.59,560.49 714.03,561.67 712.48,562.85 710.92,564.03 709.37,565.21 707.82,566.38 706.26,567.54 704.71,568.71 703.16,569.87 701.61,571.02 700.07,572.18 698.52,573.32 696.97,574.47 695.43,575.61 693.89,576.75 692.34,577.88 690.80,579.01 689.26,580.13 687.85,581.16" type="driving"/>
    <lane id="-1_1" index="1" disallow="pedestrian tram rail_urban rail rail_electric rail_fast ship" speed="22.22" length="259.15" width="3.75" shape="885.17,412.95 883.76,414.22 882.26,415.57 880.76,416.92 879.26,418.27 877.76,419.62 876.25,420.97 874.74,422.32 873.23,423.68 871.72,425.03 870.21,426.38 868.70,427.73 867.18,429.08 865.67,430.44 864.15,431.79 862.63,433.14 861.11,434.49 859.59,435.85 858.06,437.20 856.54,438.55 855.01,439.90 853.48,441.25 851.95,442.61 850.42,443.96 848.89,445.31 847.35,446.66 845.82,448.01 844.28,449.36 842.74,450.71 841.21,452.05 839.67,453.40 838.13,454.75 836.58,456.10 835.04,457.44 833.50,458.79 831.95,460.13 830.40,461.48 828.86,462.82 827.31,464.16 825.76,465.50 824.21,466.84 822.66,468.18 821.11,469.52 819.55,470.86 818.00,472.20 816.45,473.53 814.89,474.87 813.34,476.20 811.78,477.53 810.22,478.86 808.66,480.19 807.11,481.52 805.55,482.85 803.99,484.17 802.43,485.50 800.87,486.82 799.30,488.14 797.74,489.46 796.18,490.78 794.62,492.10 793.05,493.41 791.49,494.72 789.93,496.04 788.36,497.35 786.80,498.65 785.23,499.96 783.67,501.26 782.10,502.57 780.53,503.87 778.97,505.17 777.40,506.46 775.84,507.76 774.27,509.05 772.70,510.34 771.13,511.63 769.57,512.92 768.00,514.20 766.43,515.48 764.87,516.76 763.30,518.04 761.73,519.32 760.17,520.59 758.60,521.86 757.03,523.13 755.47,524.39 753.90,525.66 752.33,526.92 750.77,528.18 749.20,529.43 747.64,530.69 746.07,531.94 744.51,533.18 742.94,534.43 741.38,535.67 739.81,536.91 738.25,538.14 736.69,539.38 735.13,540.61 733.56,541.84 732.00,543.06 730.44,544.28 728.88,545.50 727.32,546.71 725.76,547.93 724.20,549.14 722.65,550.34 721.09,551.54 719.53,552.74 717.98,553.94 716.42,555.13 714.87,556.32 713.31,557.51 711.76,558.69 710.21,559.87 708.66,561.04 707.11,562.21 705.56,563.38 704.01,564.55 702.46,565.71 700.92,566.86 699.37,568.02 697.83,569.17 696.29,570.31 694.74,571.45 693.20,572.59 691.66,573.73 690.12,574.86 688.59,575.98 687.05,577.10 685.64,578.13" type="driving"/>
    <lane id="-1_2" index="2" disallow="pedestrian tram rail_urban rail rail_electric rail_fast ship" speed="22.22" length="259.15" width="3.75" shape="882.66,410.16 881.25,411.43 879.75,412.78 878.25,414.13 876.75,415.48 875.25,416.83 873.75,418.18 872.24,419.53 870.73,420.88 869.22,422.23 867.71,423.58 866.20,424.94 864.69,426.29 863.17,427.64 861.66,428.99 860.14,430.34 858.62,431.69 857.10,433.04 855.57,434.39 854.05,435.74 852.52,437.09 851.00,438.44 849.47,439.79 847.94,441.14 846.41,442.49 844.88,443.84 843.34,445.19 841.81,446.54 840.27,447.89 838.74,449.23 837.20,450.58 835.66,451.93 834.12,453.27 832.58,454.62 831.03,455.96 829.49,457.30 827.95,458.65 826.40,459.99 824.85,461.33 823.31,462.67 821.76,464.01 820.21,465.34 818.66,466.68 817.11,468.02 815.56,469.35 814.00,470.69 812.45,472.02 810.90,473.35 809.34,474.68 807.79,476.01 806.23,477.34 804.67,478.67 803.12,479.99 801.56,481.31 800.00,482.64 798.44,483.96 796.88,485.28 795.32,486.60 793.76,487.91 792.20,489.23 790.64,490.54 789.08,491.85 787.52,493.16 785.95,494.47 784.39,495.78 782.83,497.08 781.27,498.38 779.70,499.68 778.14,500.98 776.58,502.28 775.01,503.57 773.45,504.87 771.88,506.16 770.32,507.45 768.75,508.73 767.19,510.02 765.62,511.30 764.06,512.58 762.50,513.86 760.93,515.13 759.37,516.41 757.80,517.68 756.24,518.95 754.67,520.21 753.11,521.48 751.55,522.74 749.98,524.00 748.42,525.25 746.86,526.51 745.30,527.76 743.73,529.00 742.17,530.25 740.61,531.49 739.05,532.73 737.49,533.97 735.93,535.20 734.37,536.43 732.81,537.66 731.25,538.89 729.69,540.11 728.13,541.33 726.58,542.54 725.02,543.76 723.46,544.96 721.91,546.17 720.35,547.37 718.80,548.57 717.25,549.77 715.69,550.96 714.14,552.15 712.59,553.34 711.04,554.52 709.49,555.70 707.94,556.88 706.40,558.05 704.85,559.22 703.30,560.39 701.76,561.55 700.22,562.71 698.67,563.86 697.13,565.01 695.59,566.16 694.05,567.30 692.51,568.44 690.98,569.57 689.44,570.71 687.91,571.83 686.37,572.96 684.84,574.07 683.43,575.10" type="driving"/>
  </edge>