<?xml version='1.0' encoding='UTF-8'?>
<!-- generated on 2022-11-12 22:35:36 by Eclipse SUMO netconvert Version 1.13.0
<configuration xmlns:xsi="http://www.w3.org/2001/XMLSchema-instance" xsi:noNamespaceSchemaLocation="http://sumo.dlr.de/xsd/netconvertConfiguration.xsd">

    <input>
        <opendrive-files value="map_v4\4\53434346\53434346.xodr"/>
    </input>

    <output>
        <output-file value="C:\Users\LinGe\AppData\Local\Temp\tmp8sxxearj\53434346.net.xml"/>
    </output>

    <processing>
        <geometry.max-grade.fix value="false"/>
    </processing>

    <tls_building>
        <tls.left-green.time value="0"/>
    </tls_building>

    <junctions>
        <rectangular-lane-cut value="true"/>
    </junctions>

    <report>
        <aggregate-warnings value="5"/>
    </report>

</configuration>
-->
<net xmlns:xsi="http://www.w3.org/2001/XMLSchema-instance" version="1.9" junctionCornerDetail="5" rectangularLaneCut="true" limitTurnSpeed="5.50" xsi:noNamespaceSchemaLocation="http://sumo.dlr.de/xsd/net_file.xsd">
  <location netOffset="1.56,205.14" convBoundary="0.00,0.00,1102.73,1406.40" origBoundary="-1.56,-205.14,1101.18,1201.26" projParameter="!"/>
  <type id="bidirectional" priority="1" speed="1.39" disallow="pedestrian tram rail_urban rail rail_electric rail_fast ship" width="3.65"/>
  <type id="border" priority="0" speed="1.39" disallow="all" discard="1" width="0.10"/>
  <type id="driving" priority="1" speed="13.89" disallow="pedestrian tram rail_urban rail rail_electric rail_fast ship" width="3.65"/>
  <type id="entry" priority="1" speed="22.22" disallow="pedestrian tram rail_urban rail rail_electric rail_fast ship" width="3.65"/>
  <type id="exit" priority="1" speed="22.22" disallow="pedestrian tram rail_urban rail rail_electric rail_fast ship" width="3.65"/>
  <type id="median" priority="0" speed="1.39" disallow="all" discard="1" width="0.10"/>
  <type id="mwyEntry" priority="1" speed="22.22" allow="private emergency authority army vip passenger hov taxi bus coach delivery truck trailer motorcycle evehicle custom1 custom2" width="3.65"/>
  <type id="mwyExit" priority="1" speed="22.22" allow="private emergency authority army vip passenger hov taxi bus coach delivery truck trailer motorcycle evehicle custom1 custom2" width="3.65"/>
  <type id="none" priority="0" speed="1.39" disallow="all" discard="1" width="1.00"/>
  <type id="offRamp" priority="1" speed="22.22" allow="private emergency authority army vip passenger hov taxi bus coach delivery truck trailer motorcycle evehicle custom1 custom2" width="3.65"/>
  <type id="onRamp" priority="1" speed="22.22" allow="private emergency authority army vip passenger hov taxi bus coach delivery truck trailer motorcycle evehicle custom1 custom2" width="3.65"/>
  <type id="parking" priority="1" speed="1.39" disallow="pedestrian tram rail_urban rail rail_electric rail_fast ship" width="2.50"/>
  <type id="rail" priority="3" speed="33.33" allow="rail_urban rail rail_electric rail_fast" width="3.65"/>
  <type id="restricted" priority="0" speed="13.89" disallow="all" width="3.65"/>
  <type id="roadWorks" priority="0" speed="1.39" allow="authority" width="3.65"/>
  <type id="shoulder" priority="0" speed="1.39" disallow="all" discard="1" width="1.00"/>
  <type id="special1" priority="1" speed="22.22" allow="custom1" discard="1" width="3.65"/>
  <type id="special2" priority="1" speed="22.22" allow="custom2" discard="1" width="3.65"/>
  <type id="special3" priority="1" speed="22.22" allow="custom1 custom2" discard="1" width="3.65"/>
  <type id="stop" priority="1" speed="13.89" disallow="pedestrian tram rail_urban rail rail_electric rail_fast ship" width="3.65"/>
  <type id="tram" priority="2" speed="13.89" allow="tram" width="3.65"/>
  <edge id=":0_0" function="internal">
    <lane id=":0_0_0" index="0" disallow="pedestrian tram rail_urban rail rail_electric rail_fast ship" speed="16.67" length="41.01" width="3.75" shape="975.73,435.86 967.28,444.39,0.03 959.22,453.58,0.05 952.67,461.61,0.07 948.76,466.70,0.09"/>
  </edge>
  <edge id=":0_1" function="internal">
    <lane id=":0_1_0" index="0" disallow="pedestrian tram rail_urban rail rail_electric rail_fast ship" speed="22.22" length="41.17" width="3.75" shape="975.73,435.86 945.41,463.72"/>
    <lane id=":0_1_1" index="1" disallow="pedestrian tram rail_urban rail rail_electric rail_fast ship" speed="22.22" length="41.17" width="3.75" shape="973.19,433.10 942.87,460.95"/>
    <lane id=":0_1_2" index="2" disallow="pedestrian tram rail_urban rail rail_electric rail_fast ship" speed="22.22" length="41.17" width="3.75" shape="970.65,430.34 940.34,458.19"/>
  </edge>
  <edge id=":1_0" function="internal">
    <lane id=":1_0_0" index="0" disallow="pedestrian tram rail_urban rail rail_electric rail_fast ship" speed="18.06" length="58.59" width="3.75" shape="480.39,835.39 468.17,843.69 453.38,854.41 440.27,864.25 433.09,869.93"/>
  </edge>
  <edge id=":1_1" function="internal">
    <lane id=":1_1_0" index="0" disallow="pedestrian tram rail_urban rail rail_electric rail_fast ship" speed="22.22" length="58.84" width="3.75" shape="480.39,835.39 430.38,866.46"/>
    <lane id=":1_1_1" index="1" disallow="pedestrian tram rail_urban rail rail_electric rail_fast ship" speed="22.22" length="58.84" width="3.75" shape="478.39,832.21 428.42,863.26"/>
    <lane id=":1_1_2" index="2" disallow="pedestrian tram rail_urban rail rail_electric rail_fast ship" speed="22.22" length="58.84" width="3.75" shape="476.40,829.04 426.45,860.06"/>
  </edge>
  <edge id=":10_0" function="internal">
    <lane id=":10_0_0" index="0" disallow="pedestrian tram rail_urban rail rail_electric rail_fast ship" speed="13.89" length="37.17" width="3.75" shape="353.58,378.82,15.28 389.76,370.30,15.24"/>
  </edge>
  <edge id=":10_1" function="internal">
    <lane id=":10_1_0" index="0" disallow="pedestrian tram rail_urban rail rail_electric rail_fast ship" speed="16.67" length="37.76" width="3.75" shape="353.58,378.82,15.28 360.79,377.64,15.25 372.27,376.15,15.21 383.78,374.87,15.18 391.06,374.33,15.15"/>
  </edge>
  <edge id=":11_0" function="internal">
    <lane id=":11_0_0" index="0" disallow="pedestrian tram rail_urban rail rail_electric rail_fast ship" speed="16.67" length="75.96" width="3.75" shape="919.35,1242.16,20.00 926.83,1251.38,20.00 941.13,1268.58,20.00 956.79,1287.07,20.00 968.38,1300.17,20.00"/>
  </edge>
  <edge id=":11_1" function="internal">
    <lane id=":11_1_0" index="0" disallow="pedestrian tram rail_urban rail rail_electric rail_fast ship" speed="22.22" length="75.66" width="3.75" shape="916.41,1245.19,20.00 968.38,1300.17,20.00"/>
    <lane id=":11_1_1" index="1" disallow="pedestrian tram rail_urban rail rail_electric rail_fast ship" speed="22.22" length="75.66" width="3.75" shape="913.68,1247.77,20.00 965.65,1302.75,20.00"/>
    <lane id=":11_1_2" index="2" disallow="pedestrian tram rail_urban rail rail_electric rail_fast ship" speed="22.22" length="75.66" width="3.75" shape="910.95,1250.34,20.00 962.93,1305.33,20.00"/>
  </edge>
  <edge id=":12_0" function="internal">
    <lane id=":12_0_0" index="0" disallow="pedestrian tram rail_urban rail rail_electric rail_fast ship" speed="18.06" length="44.02" width="3.75" shape="599.44,945.56,20.00 595.86,939.69,20.00 589.47,930.25,20.00 581.63,919.56,20.00 573.69,909.92,20.00"/>
  </edge>
  <edge id=":12_1" function="internal">
    <lane id=":12_1_0" index="0" disallow="pedestrian tram rail_urban rail rail_electric rail_fast ship" speed="22.22" length="43.36" width="3.75" shape="602.83,942.06,20.00 573.69,909.92,20.00"/>
    <lane id=":12_1_1" index="1" disallow="pedestrian tram rail_urban rail rail_electric rail_fast ship" speed="22.22" length="43.36" width="3.75" shape="605.60,939.53,20.00 576.48,907.41,20.00"/>
    <lane id=":12_1_2" index="2" disallow="pedestrian tram rail_urban rail rail_electric rail_fast ship" speed="22.22" length="43.36" width="3.75" shape="608.37,937.01,20.00 579.26,904.90,20.00"/>
  </edge>
  <edge id=":13_0" function="internal">
    <lane id=":13_0_0" index="0" disallow="pedestrian tram rail_urban rail rail_electric rail_fast ship" speed="12.21" length="17.70" width="3.75" shape="901.99,460.97,0.00 906.96,461.53,0.00 911.39,461.12,0.00 915.29,459.74,0.00 918.66,457.39"/>
  </edge>
  <edge id=":13_1" function="internal">
    <lane id=":13_1_0" index="0" disallow="pedestrian tram rail_urban rail rail_electric rail_fast ship" speed="22.22" length="15.40" width="3.75" shape="907.29,467.78 918.66,457.39"/>
    <lane id=":13_1_1" index="1" disallow="pedestrian tram rail_urban rail rail_electric rail_fast ship" speed="22.22" length="15.40" width="3.75" shape="909.82,470.55 921.19,460.16"/>
    <lane id=":13_1_2" index="2" disallow="pedestrian tram rail_urban rail rail_electric rail_fast ship" speed="22.22" length="15.40" width="3.75" shape="912.35,473.32 923.72,462.93"/>
  </edge>
  <edge id=":14_0" function="internal">
    <lane id=":14_0_0" index="0" disallow="pedestrian tram rail_urban rail rail_electric rail_fast ship" speed="18.06" length="8.03" width="3.75" shape="192.68,367.48,20.00 197.16,374.14,20.00"/>
  </edge>
  <edge id=":14_1" function="internal">
    <lane id=":14_1_0" index="0" disallow="pedestrian tram rail_urban rail rail_electric rail_fast ship" speed="22.22" length="4.06" width="3.75" shape="194.88,370.79,20.00 197.16,374.14,20.00"/>
    <lane id=":14_1_1" index="1" disallow="pedestrian tram rail_urban rail rail_electric rail_fast ship" speed="22.22" length="4.06" width="3.75" shape="191.78,372.90,20.00 194.06,376.25,20.00"/>
    <lane id=":14_1_2" index="2" disallow="pedestrian tram rail_urban rail rail_electric rail_fast ship" speed="22.22" length="4.06" width="3.75" shape="188.68,375.00,20.00 190.96,378.36,20.00"/>
  </edge>
  <edge id=":14.13_0" function="internal">
    <lane id=":14.13_0_0" index="0" disallow="pedestrian tram rail_urban rail rail_electric rail_fast ship" speed="22.22" length="0.30" width="3.75" shape="467.78,753.40,20.00 467.97,753.63,20.00"/>
    <lane id=":14.13_0_1" index="1" disallow="pedestrian tram rail_urban rail rail_electric rail_fast ship" speed="22.22" length="0.30" width="3.75" shape="464.87,755.75,20.00 465.05,755.99,20.00"/>
    <lane id=":14.13_0_2" index="2" disallow="pedestrian tram rail_urban rail rail_electric rail_fast ship" speed="22.22" length="0.30" width="3.75" shape="461.95,758.11,20.00 462.14,758.34,20.00"/>
  </edge>
  <edge id=":15_0" function="internal">
    <lane id=":15_0_0" index="0" disallow="pedestrian tram rail_urban rail rail_electric rail_fast ship" speed="20.83" length="76.14" width="3.75" shape="351.92,918.63 284.44,953.91"/>
  </edge>
  <edge id=":15_1" function="internal">
    <lane id=":15_1_0" index="0" disallow="pedestrian tram rail_urban rail rail_electric rail_fast ship" speed="22.22" length="75.91" width="3.75" shape="349.78,915.21 284.44,953.91"/>
    <lane id=":15_1_1" index="1" disallow="pedestrian tram rail_urban rail rail_electric rail_fast ship" speed="22.22" length="75.91" width="3.75" shape="347.86,911.99 282.54,950.68"/>
    <lane id=":15_1_2" index="2" disallow="pedestrian tram rail_urban rail rail_electric rail_fast ship" speed="22.22" length="75.91" width="3.75" shape="345.93,908.77 280.64,947.44"/>
  </edge>
  <edge id=":19.18_0" function="internal">
    <lane id=":19.18_0_0" index="0" disallow="pedestrian tram rail_urban rail rail_electric rail_fast ship" speed="22.22" length="0.30" width="3.75" shape="450.28,767.93,20.00 450.08,767.69,20.00"/>
    <lane id=":19.18_0_1" index="1" disallow="pedestrian tram rail_urban rail rail_electric rail_fast ship" speed="22.22" length="0.30" width="3.75" shape="453.19,765.57,20.00 453.00,765.33,20.00"/>
    <lane id=":19.18_0_2" index="2" disallow="pedestrian tram rail_urban rail rail_electric rail_fast ship" speed="22.22" length="0.30" width="3.75" shape="456.11,763.21,20.00 455.92,762.98,20.00"/>
  </edge>
  <edge id=":2_0" function="internal">
    <lane id=":2_0_0" index="0" disallow="pedestrian tram rail_urban rail rail_electric rail_fast ship" speed="16.67" length="29.12" width="3.75" shape="184.95,985.61 193.27,980.19,0.07 199.57,975.05,0.12 204.11,970.53,0.17 207.12,966.99,0.20"/>
  </edge>
  <edge id=":2_1" function="internal">
    <lane id=":2_1_0" index="0" disallow="pedestrian tram rail_urban rail rail_electric rail_fast ship" speed="22.22" length="29.42" width="3.75" shape="184.95,985.61 210.39,970.85"/>
    <lane id=":2_1_1" index="1" disallow="pedestrian tram rail_urban rail rail_electric rail_fast ship" speed="22.22" length="29.42" width="3.75" shape="186.83,988.86 212.28,974.09"/>
    <lane id=":2_1_2" index="2" disallow="pedestrian tram rail_urban rail rail_electric rail_fast ship" speed="22.22" length="29.42" width="3.75" shape="188.71,992.10 214.16,977.34"/>
  </edge>
  <edge id=":2.1_0" function="internal">
    <lane id=":2.1_0_0" index="0" disallow="pedestrian tram rail_urban rail rail_electric rail_fast ship" speed="22.22" length="0.30" width="3.75" shape="614.12,746.25 613.87,746.43"/>
    <lane id=":2.1_0_1" index="1" disallow="pedestrian tram rail_urban rail rail_electric rail_fast ship" speed="22.22" length="0.30" width="3.75" shape="611.91,743.22 611.67,743.40"/>
    <lane id=":2.1_0_2" index="2" disallow="pedestrian tram rail_urban rail rail_electric rail_fast ship" speed="22.22" length="0.30" width="3.75" shape="609.71,740.19 609.47,740.36"/>
  </edge>
  <edge id=":23.22_0" function="internal">
    <lane id=":23.22_0_0" index="0" disallow="pedestrian tram rail_urban rail rail_electric rail_fast ship" speed="16.67" length="0.30" width="3.75" shape="479.33,1058.26,8.17 479.04,1058.16,8.16"/>
  </edge>
  <edge id=":26.25_0" function="internal">
    <lane id=":26.25_0_0" index="0" disallow="pedestrian tram rail_urban rail rail_electric rail_fast ship" speed="11.11" length="0.30" width="3.75" shape="244.93,657.95,9.17 244.90,657.66,9.18"/>
  </edge>
  <edge id=":29.28_0" function="internal">
    <lane id=":29.28_0_0" index="0" disallow="pedestrian tram rail_urban rail rail_electric rail_fast ship" speed="13.89" length="0.30" width="3.75" shape="482.02,358.97,12.26 482.31,358.99,12.26"/>
  </edge>
  <edge id=":3_0" function="internal">
    <lane id=":3_0_0" index="0" disallow="pedestrian tram rail_urban rail rail_electric rail_fast ship" speed="18.06" length="36.81" width="3.75" shape="176.12,343.16,20.00 182.93,352.25,20.00 190.01,360.38,20.00 196.24,366.75,20.00 200.54,370.58,20.00"/>
  </edge>
  <edge id=":3_1" function="internal">
    <lane id=":3_1_0" index="0" disallow="pedestrian tram rail_urban rail rail_electric rail_fast ship" speed="22.22" length="33.20" width="3.75" shape="176.12,343.16,20.00 194.77,370.62,20.00"/>
    <lane id=":3_1_1" index="1" disallow="pedestrian tram rail_urban rail rail_electric rail_fast ship" speed="22.22" length="33.20" width="3.75" shape="173.02,345.26,20.00 191.67,372.73,20.00"/>
    <lane id=":3_1_2" index="2" disallow="pedestrian tram rail_urban rail rail_electric rail_fast ship" speed="22.22" length="33.20" width="3.75" shape="169.91,347.36,20.00 188.56,374.84,20.00"/>
  </edge>
  <edge id=":31.30_0" function="internal">
    <lane id=":31.30_0_0" index="0" disallow="pedestrian tram rail_urban rail rail_electric rail_fast ship" speed="11.11" length="0.29" width="3.75" shape="764.13,878.81,10.21 764.13,879.10,10.22"/>
  </edge>
  <edge id=":33.32_0" function="internal">
    <lane id=":33.32_0_0" index="0" disallow="pedestrian tram rail_urban rail rail_electric rail_fast ship" speed="13.89" length="0.29" width="3.75" shape="427.46,1074.83,9.29 427.70,1075.00,9.31"/>
  </edge>
  <edge id=":35.34_0" function="internal">
    <lane id=":35.34_0_0" index="0" disallow="pedestrian tram rail_urban rail rail_electric rail_fast ship" speed="11.11" length="0.30" width="3.75" shape="56.94,452.15,6.37 57.05,451.87,6.36"/>
  </edge>
  <edge id=":37.36_0" function="internal">
    <lane id=":37.36_0_0" index="0" disallow="pedestrian tram rail_urban rail rail_electric rail_fast ship" speed="13.89" length="0.30" width="3.75" shape="535.34,199.38,12.73 535.30,199.09,12.73"/>
  </edge>
  <edge id=":39.38_0" function="internal">
    <lane id=":39.38_0_0" index="0" disallow="pedestrian tram rail_urban rail rail_electric rail_fast ship" speed="19.44" length="0.30" width="3.75" shape="573.39,647.84,7.96 573.35,648.14,7.95"/>
  </edge>
  <edge id=":4_0" function="internal">
    <lane id=":4_0_0" index="0" disallow="pedestrian tram rail_urban rail rail_electric rail_fast ship" speed="19.44" length="69.75" width="3.75" shape="886.54,1246.68,20.00 874.80,1235.06,20.00 858.71,1219.90,20.00 843.83,1206.20,20.00 835.68,1198.95,20.00"/>
  </edge>
  <edge id=":4_1" function="internal">
    <lane id=":4_1_0" index="0" disallow="pedestrian tram rail_urban rail rail_electric rail_fast ship" speed="22.22" length="69.92" width="3.75" shape="886.54,1246.68,20.00 838.57,1195.81,20.00"/>
    <lane id=":4_1_1" index="1" disallow="pedestrian tram rail_urban rail rail_electric rail_fast ship" speed="22.22" length="69.92" width="3.75" shape="889.27,1244.11,20.00 841.30,1193.24,20.00"/>
    <lane id=":4_1_2" index="2" disallow="pedestrian tram rail_urban rail rail_electric rail_fast ship" speed="22.22" length="69.92" width="3.75" shape="891.99,1241.53,20.00 844.03,1190.67,20.00"/>
  </edge>
  <edge id=":5_0" function="internal">
    <lane id=":5_0_0" index="0" disallow="pedestrian tram rail_urban rail rail_electric rail_fast ship" speed="19.44" length="50.31" width="3.75" shape="232.48,989.70,0.00 225.16,992.58,0.00 212.74,997.99,0.00 198.78,1004.53,0.00 186.84,1010.79"/>
  </edge>
  <edge id=":5_1" function="internal">
    <lane id=":5_1_0" index="0" disallow="pedestrian tram rail_urban rail rail_electric rail_fast ship" speed="22.22" length="49.76" width="3.75" shape="229.88,985.81 186.84,1010.79"/>
    <lane id=":5_1_1" index="1" disallow="pedestrian tram rail_urban rail rail_electric rail_fast ship" speed="22.22" length="49.76" width="3.75" shape="228.00,982.57 184.96,1007.54"/>
    <lane id=":5_1_2" index="2" disallow="pedestrian tram rail_urban rail rail_electric rail_fast ship" speed="22.22" length="49.76" width="3.75" shape="226.11,979.33 183.08,1004.29"/>
  </edge>
  <edge id=":6_0" function="internal">
    <lane id=":6_0_0" index="0" disallow="pedestrian tram rail_urban rail rail_electric rail_fast ship" speed="16.67" length="3.00" width="3.75" shape="678.73,1119.77,12.92 675.88,1118.84,12.82"/>
  </edge>
  <edge id=":6_1" function="internal">
    <lane id=":6_1_0" index="0" disallow="pedestrian tram rail_urban rail rail_electric rail_fast ship" speed="13.89" length="3.00" width="3.75" shape="678.73,1119.77,12.92 675.88,1118.84,12.87"/>
  </edge>
  <edge id=":7_0" function="internal">
    <lane id=":7_0_0" index="0" disallow="pedestrian tram rail_urban rail rail_electric rail_fast ship" speed="16.67" length="45.16" width="3.75" shape="124.01,314.61,20.00 120.95,308.24,20.00 115.64,297.72,20.00 109.16,285.72,20.00 102.57,274.90,20.00"/>
  </edge>
  <edge id=":7_1" function="internal">
    <lane id=":7_1_0" index="0" disallow="pedestrian tram rail_urban rail rail_electric rail_fast ship" speed="22.22" length="44.69" width="3.75" shape="127.56,311.95,20.00 102.57,274.90,20.00"/>
    <lane id=":7_1_1" index="1" disallow="pedestrian tram rail_urban rail rail_electric rail_fast ship" speed="22.22" length="44.69" width="3.75" shape="130.67,309.85,20.00 105.68,272.80,20.00"/>
    <lane id=":7_1_2" index="2" disallow="pedestrian tram rail_urban rail rail_electric rail_fast ship" speed="22.22" length="44.69" width="3.75" shape="133.78,307.75,20.00 108.79,270.71,20.00"/>
  </edge>
  <edge id=":8_0" function="internal">
    <lane id=":8_0_0" index="0" disallow="pedestrian tram rail_urban rail rail_electric rail_fast ship" speed="11.11" length="24.50" width="3.75" shape="250.16,806.05,6.15 251.06,781.57,6.19"/>
  </edge>
  <edge id=":8_1" function="internal">
    <lane id=":8_1_0" index="0" disallow="pedestrian tram rail_urban rail rail_electric rail_fast ship" speed="12.50" length="25.41" width="3.75" shape="250.16,806.05,6.15 250.86,800.73,6.16 252.28,793.53,6.17 254.00,786.40,6.19 255.59,781.27,6.20"/>
  </edge>
  <edge id=":8.7_0" function="internal">
    <lane id=":8.7_0_0" index="0" disallow="pedestrian tram rail_urban rail rail_electric rail_fast ship" speed="22.22" length="0.30" width="3.75" shape="600.50,728.03 600.74,727.86"/>
    <lane id=":8.7_0_1" index="1" disallow="pedestrian tram rail_urban rail rail_electric rail_fast ship" speed="22.22" length="0.30" width="3.75" shape="602.70,731.06 602.94,730.89"/>
    <lane id=":8.7_0_2" index="2" disallow="pedestrian tram rail_urban rail rail_electric rail_fast ship" speed="22.22" length="0.30" width="3.75" shape="604.90,734.10 605.15,733.92"/>
  </edge>
  <edge id=":9_0" function="internal">
    <lane id=":9_0_0" index="0" disallow="pedestrian tram rail_urban rail rail_electric rail_fast ship" speed="18.06" length="34.02" width="3.75" shape="954.32,417.58,0.09 959.11,415.22,0.07 965.99,411.22,0.05 974.08,405.68,0.03 982.49,398.72"/>
  </edge>
  <edge id=":9_1" function="internal">
    <lane id=":9_1_0" index="0" disallow="pedestrian tram rail_urban rail rail_electric rail_fast ship" speed="22.22" length="33.14" width="3.75" shape="958.12,421.18 982.49,398.72"/>
    <lane id=":9_1_1" index="1" disallow="pedestrian tram rail_urban rail rail_electric rail_fast ship" speed="22.22" length="33.14" width="3.75" shape="960.66,423.94 985.03,401.47"/>
    <lane id=":9_1_2" index="2" disallow="pedestrian tram rail_urban rail rail_electric rail_fast ship" speed="22.22" length="33.14" width="3.75" shape="963.20,426.70 987.57,404.23"/>
  </edge>
  <edge id="-0" from="0.begin" to="0" priority="1" type="driving" shape="1102.73,306.76 1101.86,307.52 1100.98,308.30 1100.08,309.09 1099.16,309.90 1098.23,310.72 1097.28,311.56 1096.32,312.41 1095.34,313.28 1094.35,314.17 1093.34,315.07 1092.32,315.98 1091.28,316.91 1090.23,317.85 1089.17,318.81 1088.08,319.78 1086.99,320.77 1085.88,321.77 1084.75,322.79 1083.62,323.82 1082.46,324.86 1081.30,325.92 1080.12,326.99 1078.92,328.07 1077.71,329.17 1076.49,330.28 1075.26,331.41 1074.01,332.55 1072.74,333.70 1071.47,334.86 1070.18,336.04 1068.88,337.23 1067.56,338.43 1066.24,339.65 1064.89,340.88 1063.54,342.12 1062.18,343.37 1060.80,344.63 1059.41,345.91 1058.00,347.20 1056.59,348.50 1055.16,349.81 1053.72,351.14 1052.27,352.47 1050.80,353.82 1049.33,355.18 1047.84,356.55 1046.34,357.93 1044.83,359.32 1043.31,360.72 1041.78,362.13 1040.23,363.56 1038.68,364.99 1037.11,366.44 1035.53,367.89 1033.94,369.36 1032.35,370.84 1030.74,372.32 1029.11,373.82 1027.48,375.33 1025.84,376.84 1024.19,378.37 1022.53,379.90 1020.86,381.45 1019.17,383.00 1017.48,384.56 1015.78,386.14 1014.07,387.72 1012.35,389.31 1010.62,390.91 1008.87,392.52 1007.12,394.13 1005.37,395.76 1003.60,397.39 1001.82,399.03 1000.03,400.68 998.24,402.34 996.43,404.01 994.62,405.68 992.80,407.37 990.97,409.06 989.13,410.75 987.28,412.46 985.42,414.17 983.56,415.89 981.69,417.62 979.81,419.35 977.92,421.09 976.02,422.84 974.12,424.59 972.21,426.35 970.29,428.12 968.36,429.89 966.43,431.67">
    <lane id="-0_0" index="0" disallow="pedestrian tram rail_urban rail rail_electric rail_fast ship" speed="22.22" length="180.73" width="3.75" shape="1108.91,313.82 1108.04,314.57 1107.17,315.34 1106.27,316.13 1105.37,316.93 1104.44,317.74 1103.50,318.58 1102.55,319.42 1101.58,320.29 1100.59,321.17 1099.59,322.06 1098.57,322.97 1097.54,323.89 1096.49,324.83 1095.43,325.78 1094.36,326.75 1093.27,327.74 1092.16,328.73 1091.04,329.74 1089.90,330.77 1088.76,331.81 1087.59,332.86 1086.42,333.93 1085.22,335.01 1084.02,336.11 1082.80,337.22 1081.57,338.34 1080.32,339.48 1079.06,340.62 1077.79,341.79 1076.50,342.96 1075.20,344.15 1073.89,345.35 1072.57,346.56 1071.23,347.79 1069.88,349.03 1068.51,350.28 1067.14,351.54 1065.75,352.82 1064.34,354.10 1062.93,355.40 1061.50,356.71 1060.07,358.04 1058.62,359.37 1057.15,360.72 1055.68,362.07 1054.19,363.44 1052.69,364.82 1051.19,366.21 1049.66,367.61 1048.13,369.03 1046.59,370.45 1045.03,371.88 1043.47,373.33 1041.89,374.78 1040.30,376.25 1038.70,377.73 1037.09,379.21 1035.47,380.71 1033.84,382.21 1032.20,383.73 1030.55,385.25 1028.89,386.79 1027.22,388.33 1025.54,389.89 1023.84,391.45 1022.14,393.02 1020.43,394.60 1018.71,396.20 1016.98,397.79 1015.24,399.40 1013.49,401.02 1011.73,402.64 1009.96,404.28 1008.18,405.92 1006.39,407.57 1004.60,409.23 1002.79,410.90 1000.98,412.57 999.16,414.25 997.32,415.94 995.48,417.64 993.64,419.35 991.78,421.06 989.92,422.78 988.04,424.51 986.16,426.24 984.27,427.98 982.38,429.73 980.47,431.49 978.56,433.25 976.64,435.02 975.73,435.86" type="driving"/>
    <lane id="-0_1" index="1" disallow="pedestrian tram rail_urban rail rail_electric rail_fast ship" speed="22.22" length="180.73" width="3.75" shape="1106.44,311.00 1105.57,311.75 1104.69,312.52 1103.80,313.31 1102.88,314.12 1101.96,314.94 1101.02,315.77 1100.06,316.62 1099.08,317.49 1098.10,318.37 1097.09,319.26 1096.07,320.17 1095.04,321.10 1093.99,322.04 1092.93,323.00 1091.85,323.97 1090.75,324.95 1089.65,325.95 1088.53,326.96 1087.39,327.99 1086.24,329.03 1085.07,330.09 1083.90,331.15 1082.70,332.24 1081.50,333.33 1080.28,334.44 1079.04,335.57 1077.80,336.70 1076.54,337.85 1075.26,339.02 1073.97,340.19 1072.67,341.38 1071.36,342.58 1070.03,343.80 1068.69,345.02 1067.34,346.26 1065.98,347.51 1064.60,348.78 1063.21,350.05 1061.81,351.34 1060.39,352.64 1058.97,353.95 1057.53,355.28 1056.08,356.61 1054.61,357.96 1053.14,359.31 1051.65,360.68 1050.15,362.06 1048.64,363.45 1047.12,364.86 1045.59,366.27 1044.05,367.69 1042.49,369.13 1040.93,370.57 1039.35,372.03 1037.76,373.49 1036.16,374.97 1034.55,376.46 1032.93,377.95 1031.30,379.46 1029.66,380.97 1028.01,382.50 1026.35,384.03 1024.67,385.58 1022.99,387.13 1021.30,388.70 1019.60,390.27 1017.88,391.85 1016.16,393.44 1014.43,395.04 1012.69,396.65 1010.94,398.27 1009.18,399.89 1007.41,401.52 1005.64,403.17 1003.85,404.82 1002.05,406.48 1000.25,408.14 998.43,409.82 996.61,411.50 994.78,413.19 992.94,414.89 991.09,416.59 989.24,418.30 987.37,420.02 985.50,421.75 983.62,423.48 981.73,425.23 979.84,426.97 977.93,428.73 976.02,430.49 974.10,432.26 973.19,433.10" type="driving"/>
    <lane id="-0_2" index="2" disallow="pedestrian tram rail_urban rail rail_electric rail_fast ship" speed="22.22" length="180.73" width="3.75" shape="1103.97,308.17 1103.10,308.93 1102.22,309.71 1101.32,310.50 1100.40,311.30 1099.47,312.13 1098.53,312.96 1097.57,313.82 1096.59,314.68 1095.60,315.57 1094.59,316.47 1093.57,317.38 1092.54,318.31 1091.49,319.25 1090.42,320.21 1089.34,321.18 1088.24,322.16 1087.13,323.16 1086.01,324.18 1084.87,325.21 1083.72,326.25 1082.56,327.31 1081.38,328.38 1080.18,329.46 1078.97,330.56 1077.75,331.67 1076.52,332.79 1075.27,333.93 1074.01,335.08 1072.73,336.25 1071.44,337.42 1070.14,338.61 1068.83,339.82 1067.50,341.03 1066.16,342.26 1064.81,343.50 1063.44,344.75 1062.06,346.01 1060.67,347.29 1059.27,348.58 1057.86,349.88 1056.43,351.19 1054.99,352.52 1053.54,353.85 1052.07,355.20 1050.60,356.56 1049.11,357.92 1047.61,359.31 1046.10,360.70 1044.58,362.10 1043.05,363.51 1041.50,364.94 1039.95,366.37 1038.38,367.82 1036.80,369.27 1035.22,370.74 1033.62,372.21 1032.01,373.70 1030.39,375.20 1028.76,376.70 1027.11,378.22 1025.46,379.74 1023.80,381.28 1022.13,382.82 1020.45,384.38 1018.75,385.94 1017.05,387.51 1015.34,389.10 1013.62,390.69 1011.89,392.29 1010.15,393.89 1008.40,395.51 1006.64,397.14 1004.87,398.77 1003.09,400.41 1001.30,402.06 999.51,403.72 997.70,405.39 995.89,407.06 994.07,408.74 992.24,410.43 990.40,412.13 988.55,413.84 986.70,415.55 984.83,417.27 982.96,418.99 981.08,420.73 979.19,422.47 977.29,424.22 975.39,425.97 973.48,427.73 971.56,429.50 970.65,430.34" type="driving"/>
  </edge>