<?xml version='1.0' encoding='UTF-8'?>
<!-- generated on 2022-09-05 16:13:47 by Eclipse SUMO netconvert Version 1.13.0
<configuration xmlns:xsi="http://www.w3.org/2001/XMLSchema-instance" xsi:noNamespaceSchemaLocation="http://sumo.dlr.de/xsd/netconvertConfiguration.xsd">

    <input>
        <opendrive-files value="map\classification\4\45615655\45615655.xodr"/>
    </input>

    <output>
        <output-file value="C:\Users\LinGe\AppData\Local\Temp\tmpcdxh8yaf\45615655.net.xml"/>
    </output>

    <processing>
        <geometry.max-grade.fix value="false"/>
    </processing>

    <tls_building>
        <tls.left-green.time value="0"/>
    </tls_building>

    <junctions>
        <rectangular-lane-cut value="true"/>
    </junctions>

    <report>
        <aggregate-warnings value="5"/>
    </report>

</configuration>
-->
<net xmlns:xsi="http://www.w3.org/2001/XMLSchema-instance" version="1.9" junctionCornerDetail="5" rectangularLaneCut="true" limitTurnSpeed="5.50" xsi:noNamespaceSchemaLocation="http://sumo.dlr.de/xsd/net_file.xsd">
  <location netOffset="1.56,128.61" convBoundary="0.00,0.00,1102.73,1329.87" origBoundary="-1.56,-128.61,1101.18,1201.26" projParameter="!"/>
  <type id="bidirectional" priority="1" speed="1.39" disallow="pedestrian tram rail_urban rail rail_electric rail_fast ship" width="3.65"/>
  <type id="border" priority="0" speed="1.39" disallow="all" discard="1" width="0.10"/>
  <type id="driving" priority="1" speed="13.89" disallow="pedestrian tram rail_urban rail rail_electric rail_fast ship" width="3.65"/>
  <type id="entry" priority="1" speed="22.22" disallow="pedestrian tram rail_urban rail rail_electric rail_fast ship" width="3.65"/>
  <type id="exit" priority="1" speed="22.22" disallow="pedestrian tram rail_urban rail rail_electric rail_fast ship" width="3.65"/>
  <type id="median" priority="0" speed="1.39" disallow="all" discard="1" width="0.10"/>
  <type id="mwyEntry" priority="1" speed="22.22" allow="private emergency authority army vip passenger hov taxi bus coach delivery truck trailer motorcycle evehicle custom1 custom2" width="3.65"/>
  <type id="mwyExit" priority="1" speed="22.22" allow="private emergency authority army vip passenger hov taxi bus coach delivery truck trailer motorcycle evehicle custom1 custom2" width="3.65"/>
  <type id="none" priority="0" speed="1.39" disallow="all" discard="1" width="1.00"/>
  <type id="offRamp" priority="1" speed="22.22" allow="private emergency authority army vip passenger hov taxi bus coach delivery truck trailer motorcycle evehicle custom1 custom2" width="3.65"/>
  <type id="onRamp" priority="1" speed="22.22" allow="private emergency authority army vip passenger hov taxi bus coach delivery truck trailer motorcycle evehicle custom1 custom2" width="3.65"/>
  <type id="parking" priority="1" speed="1.39" disallow="pedestrian tram rail_urban rail rail_electric rail_fast ship" width="2.50"/>
  <type id="rail" priority="3" speed="33.33" allow="rail_urban rail rail_electric rail_fast" width="3.65"/>
  <type id="restricted" priority="0" speed="13.89" disallow="all" width="3.65"/>
  <type id="roadWorks" priority="0" speed="1.39" allow="authority" width="3.65"/>
  <type id="shoulder" priority="0" speed="1.39" disallow="all" discard="1" width="1.00"/>
  <type id="special1" priority="1" speed="22.22" allow="custom1" discard="1" width="3.65"/>
  <type id="special2" priority="1" speed="22.22" allow="custom2" discard="1" width="3.65"/>
  <type id="special3" priority="1" speed="22.22" allow="custom1 custom2" discard="1" width="3.65"/>
  <type id="stop" priority="1" speed="13.89" disallow="pedestrian tram rail_urban rail rail_electric rail_fast ship" width="3.65"/>
  <type id="tram" priority="2" speed="13.89" allow="tram" width="3.65"/>
  <edge id=":0_0" function="internal">
    <lane id=":0_0_0" index="0" disallow="pedestrian tram rail_urban rail rail_electric rail_fast ship" speed="15.28" length="101.23" width="3.75" shape="999.43,303.36 914.70,358.75"/>
  </edge>
  <edge id=":0_1" function="internal">
    <lane id=":0_1_0" index="0" disallow="pedestrian tram rail_urban rail rail_electric rail_fast ship" speed="22.22" length="101.30" width="3.75" shape="999.43,303.36 912.50,355.34"/>
    <lane id=":0_1_1" index="1" disallow="pedestrian tram rail_urban rail rail_electric rail_fast ship" speed="22.22" length="101.30" width="3.75" shape="997.51,300.14 910.57,352.13"/>
    <lane id=":0_1_2" index="2" disallow="pedestrian tram rail_urban rail rail_electric rail_fast ship" speed="22.22" length="101.30" width="3.75" shape="995.59,296.92 908.64,348.91"/>
  </edge>
  <edge id=":1_0" function="internal">
    <lane id=":1_0_0" index="0" disallow="pedestrian tram rail_urban rail rail_electric rail_fast ship" speed="19.44" length="88.37" width="3.75" shape="417.89,673.30 403.09,685.89 381.81,704.85 362.10,722.76 352.01,732.19"/>
  </edge>
  <edge id=":1_1" function="internal">
    <lane id=":1_1_0" index="0" disallow="pedestrian tram rail_urban rail rail_electric rail_fast ship" speed="22.22" length="88.32" width="3.75" shape="417.89,673.30 349.45,728.91"/>
    <lane id=":1_1_1" index="1" disallow="pedestrian tram rail_urban rail rail_electric rail_fast ship" speed="22.22" length="88.32" width="3.75" shape="415.59,670.35 347.03,726.03"/>
    <lane id=":1_1_2" index="2" disallow="pedestrian tram rail_urban rail rail_electric rail_fast ship" speed="22.22" length="88.32" width="3.75" shape="413.28,667.39 344.62,723.16"/>
  </edge>
  <edge id=":10_0" function="internal">
    <lane id=":10_0_0" index="0" disallow="pedestrian tram rail_urban rail rail_electric rail_fast ship" speed="19.44" length="3.00" width="3.75" shape="379.27,280.99,14.02 382.25,281.29,13.94"/>
  </edge>
  <edge id=":10_1" function="internal">
    <lane id=":10_1_0" index="0" disallow="pedestrian tram rail_urban rail rail_electric rail_fast ship" speed="18.06" length="3.00" width="3.75" shape="379.27,280.99,14.02 382.26,281.29,13.98"/>
  </edge>
  <edge id=":11_0" function="internal">
    <lane id=":11_0_0" index="0" disallow="pedestrian tram rail_urban rail rail_electric rail_fast ship" speed="15.28" length="125.16" width="3.75" shape="871.11,1112.21,20.00 953.46,1206.45,20.00"/>
  </edge>
  <edge id=":11_1" function="internal">
    <lane id=":11_1_0" index="0" disallow="pedestrian tram rail_urban rail rail_electric rail_fast ship" speed="22.22" length="124.98" width="3.75" shape="868.24,1115.04,20.00 953.46,1206.45,20.00"/>
    <lane id=":11_1_1" index="1" disallow="pedestrian tram rail_urban rail rail_electric rail_fast ship" speed="22.22" length="124.98" width="3.75" shape="865.50,1117.59,20.00 950.72,1209.01,20.00"/>
    <lane id=":11_1_2" index="2" disallow="pedestrian tram rail_urban rail rail_electric rail_fast ship" speed="22.22" length="124.98" width="3.75" shape="862.75,1120.15,20.00 947.98,1211.57,20.00"/>
  </edge>
  <edge id=":12_0" function="internal">
    <lane id=":12_0_0" index="0" disallow="pedestrian tram rail_urban rail rail_electric rail_fast ship" speed="19.44" length="47.27" width="3.75" shape="604.84,869.78,19.89 600.85,863.56,19.90 593.69,853.31,19.93 585.09,841.79,19.97 576.81,831.77,20.00"/>
  </edge>
  <edge id=":12_1" function="internal">
    <lane id=":12_1_0" index="0" disallow="pedestrian tram rail_urban rail rail_electric rail_fast ship" speed="22.22" length="46.67" width="3.75" shape="608.14,866.38,20.00 576.81,831.77,20.00"/>
    <lane id=":12_1_1" index="1" disallow="pedestrian tram rail_urban rail rail_electric rail_fast ship" speed="22.22" length="46.67" width="3.75" shape="610.92,863.86,20.00 579.60,829.25,20.00"/>
    <lane id=":12_1_2" index="2" disallow="pedestrian tram rail_urban rail rail_electric rail_fast ship" speed="22.22" length="46.67" width="3.75" shape="613.70,861.34,20.00 582.38,826.74,20.00"/>
  </edge>
  <edge id=":13_0" function="internal">
    <lane id=":13_0_0" index="0" disallow="pedestrian tram rail_urban rail rail_electric rail_fast ship" speed="20.83" length="47.95" width="3.75" shape="857.07,356.77,0.04 864.00,353.91,0.03 875.63,348.71,0.02 888.79,342.38,0.01 900.32,336.14"/>
  </edge>
  <edge id=":13_1" function="internal">
    <lane id=":13_1_0" index="0" disallow="pedestrian tram rail_urban rail rail_electric rail_fast ship" speed="22.22" length="47.42" width="3.75" shape="859.66,360.56 900.32,336.14"/>
    <lane id=":13_1_1" index="1" disallow="pedestrian tram rail_urban rail rail_electric rail_fast ship" speed="22.22" length="47.42" width="3.75" shape="861.59,363.77 902.24,339.36"/>
    <lane id=":13_1_2" index="2" disallow="pedestrian tram rail_urban rail rail_electric rail_fast ship" speed="22.22" length="47.42" width="3.75" shape="863.53,366.99 904.17,342.57"/>
  </edge>
  <edge id=":14_0" function="internal">
    <lane id=":14_0_0" index="0" disallow="pedestrian tram rail_urban rail rail_electric rail_fast ship" speed="16.02" length="22.33" width="3.75" shape="169.37,245.36,20.00 169.02,249.48,20.00 169.46,254.39,20.00 171.19,260.08,20.00 174.71,266.50,20.00"/>
  </edge>
  <edge id=":14_1" function="internal">
    <lane id=":14_1_0" index="0" disallow="pedestrian tram rail_urban rail rail_electric rail_fast ship" speed="22.22" length="20.47" width="3.75" shape="163.29,249.52,20.00 174.71,266.50,20.00"/>
    <lane id=":14_1_1" index="1" disallow="pedestrian tram rail_urban rail rail_electric rail_fast ship" speed="22.22" length="20.47" width="3.75" shape="160.17,251.61,20.00 171.60,268.59,20.00"/>
    <lane id=":14_1_2" index="2" disallow="pedestrian tram rail_urban rail rail_electric rail_fast ship" speed="22.22" length="20.47" width="3.75" shape="157.06,253.70,20.00 168.49,270.69,20.00"/>
  </edge>
  <edge id=":14.13_0" function="internal">
    <lane id=":14.13_0_0" index="0" disallow="pedestrian tram rail_urban rail rail_electric rail_fast ship" speed="22.22" length="0.30" width="3.75" shape="440.12,640.31,20.00 440.31,640.54,20.00"/>
    <lane id=":14.13_0_1" index="1" disallow="pedestrian tram rail_urban rail rail_electric rail_fast ship" speed="22.22" length="0.30" width="3.75" shape="437.21,642.67,20.00 437.39,642.90,20.00"/>
    <lane id=":14.13_0_2" index="2" disallow="pedestrian tram rail_urban rail rail_electric rail_fast ship" speed="22.22" length="0.30" width="3.75" shape="434.29,645.02,20.00 434.48,645.26,20.00"/>
  </edge>
  <edge id=":15_0" function="internal">
    <lane id=":15_0_0" index="0" disallow="pedestrian tram rail_urban rail rail_electric rail_fast ship" speed="19.44" length="25.17" width="3.75" shape="201.65,867.74,0.01 197.43,868.78,0.01 192.25,870.76,0.00 186.27,874.13,0.00 179.67,879.35"/>
  </edge>
  <edge id=":15_1" function="internal">
    <lane id=":15_1_0" index="0" disallow="pedestrian tram rail_urban rail rail_electric rail_fast ship" speed="22.22" length="23.74" width="3.75" shape="197.15,863.31 179.67,879.35"/>
    <lane id=":15_1_1" index="1" disallow="pedestrian tram rail_urban rail rail_electric rail_fast ship" speed="22.22" length="23.74" width="3.75" shape="194.62,860.54 177.13,876.60"/>
    <lane id=":15_1_2" index="2" disallow="pedestrian tram rail_urban rail rail_electric rail_fast ship" speed="22.22" length="23.74" width="3.75" shape="192.09,857.77 174.59,873.84"/>
  </edge>
  <edge id=":19.18_0" function="internal">
    <lane id=":19.18_0_0" index="0" disallow="pedestrian tram rail_urban rail rail_electric rail_fast ship" speed="22.22" length="0.30" width="3.75" shape="422.61,654.84,20.00 422.42,654.61,20.00"/>
    <lane id=":19.18_0_1" index="1" disallow="pedestrian tram rail_urban rail rail_electric rail_fast ship" speed="22.22" length="0.30" width="3.75" shape="425.53,652.48,20.00 425.34,652.25,20.00"/>
    <lane id=":19.18_0_2" index="2" disallow="pedestrian tram rail_urban rail rail_electric rail_fast ship" speed="22.22" length="0.30" width="3.75" shape="428.45,650.13,20.00 428.26,649.90,20.00"/>
  </edge>
  <edge id=":2_0" function="internal">
    <lane id=":2_0_0" index="0" disallow="pedestrian tram rail_urban rail rail_electric rail_fast ship" speed="19.44" length="60.91" width="3.75" shape="79.89,941.04 90.56,930.31 103.57,916.38 115.12,903.64 121.37,896.47"/>
  </edge>
  <edge id=":2_1" function="internal">
    <lane id=":2_1_0" index="0" disallow="pedestrian tram rail_urban rail rail_electric rail_fast ship" speed="22.22" length="61.07" width="3.75" shape="79.89,941.04 124.56,899.39"/>
    <lane id=":2_1_1" index="1" disallow="pedestrian tram rail_urban rail rail_electric rail_fast ship" speed="22.22" length="61.07" width="3.75" shape="82.45,943.78 127.11,902.13"/>
    <lane id=":2_1_2" index="2" disallow="pedestrian tram rail_urban rail rail_electric rail_fast ship" speed="22.22" length="61.07" width="3.75" shape="85.01,946.52 129.67,904.88"/>
  </edge>
  <edge id=":2.1_0" function="internal">
    <lane id=":2.1_0_0" index="0" disallow="pedestrian tram rail_urban rail rail_electric rail_fast ship" speed="22.22" length="0.30" width="3.75" shape="460.94,640.79 460.70,640.97"/>
    <lane id=":2.1_0_1" index="1" disallow="pedestrian tram rail_urban rail rail_electric rail_fast ship" speed="22.22" length="0.30" width="3.75" shape="458.74,637.76 458.49,637.94"/>
    <lane id=":2.1_0_2" index="2" disallow="pedestrian tram rail_urban rail rail_electric rail_fast ship" speed="22.22" length="0.30" width="3.75" shape="456.53,634.72 456.29,634.90"/>
  </edge>
  <edge id=":23.22_0" function="internal">
    <lane id=":23.22_0_0" index="0" disallow="pedestrian tram rail_urban rail rail_electric rail_fast ship" speed="13.89" length="0.30" width="3.75" shape="590.63,1112.95,11.07 590.35,1112.84,11.06"/>
  </edge>
  <edge id=":25.24_0" function="internal">
    <lane id=":25.24_0_0" index="0" disallow="pedestrian tram rail_urban rail rail_electric rail_fast ship" speed="16.67" length="0.30" width="3.75" shape="210.60,665.31,7.27 210.60,665.01,7.27"/>
  </edge>
  <edge id=":29.28_0" function="internal">
    <lane id=":29.28_0_0" index="0" disallow="pedestrian tram rail_urban rail rail_electric rail_fast ship" speed="19.44" length="0.30" width="3.75" shape="545.02,293.66,9.95 545.32,293.69,9.95"/>
  </edge>
  <edge id=":3_0" function="internal">
    <lane id=":3_0_0" index="0" disallow="pedestrian tram rail_urban rail rail_electric rail_fast ship" speed="20.83" length="33.59" width="3.75" shape="123.87,190.70,20.00 130.35,199.40,19.96 136.75,206.63,19.93 142.32,212.12,19.90 146.29,215.58,19.88"/>
  </edge>
  <edge id=":3_1" function="internal">
    <lane id=":3_1_0" index="0" disallow="pedestrian tram rail_urban rail rail_electric rail_fast ship" speed="22.22" length="33.86" width="3.75" shape="123.87,190.70,20.00 142.70,218.83,20.00"/>
    <lane id=":3_1_1" index="1" disallow="pedestrian tram rail_urban rail rail_electric rail_fast ship" speed="22.22" length="33.86" width="3.75" shape="120.75,192.78,20.00 139.58,220.92,20.00"/>
    <lane id=":3_1_2" index="2" disallow="pedestrian tram rail_urban rail rail_electric rail_fast ship" speed="22.22" length="33.86" width="3.75" shape="117.64,194.87,20.00 136.47,223.01,20.00"/>
  </edge>
  <edge id=":31.30_0" function="internal">
    <lane id=":31.30_0_0" index="0" disallow="pedestrian tram rail_urban rail rail_electric rail_fast ship" speed="8.33" length="0.29" width="3.75" shape="653.15,631.76,8.44 653.14,632.05,8.45"/>
  </edge>
  <edge id=":33.32_0" function="internal">
    <lane id=":33.32_0_0" index="0" disallow="pedestrian tram rail_urban rail rail_electric rail_fast ship" speed="16.67" length="0.30" width="3.75" shape="324.46,1034.75,9.06 324.68,1034.95,9.07"/>
  </edge>
  <edge id=":35.34_0" function="internal">
    <lane id=":35.34_0_0" index="0" disallow="pedestrian tram rail_urban rail rail_electric rail_fast ship" speed="19.44" length="0.30" width="3.75" shape="314.59,652.83,6.84 314.67,652.54,6.83"/>
  </edge>
  <edge id=":37.36_0" function="internal">
    <lane id=":37.36_0_0" index="0" disallow="pedestrian tram rail_urban rail rail_electric rail_fast ship" speed="16.67" length="0.30" width="3.75" shape="818.61,230.99,13.43 818.58,230.69,13.43"/>
  </edge>
  <edge id=":39.38_0" function="internal">
    <lane id=":39.38_0_0" index="0" disallow="pedestrian tram rail_urban rail rail_electric rail_fast ship" speed="16.67" length="0.30" width="3.75" shape="989.35,785.23,7.01 989.25,785.51,7.01"/>
  </edge>
  <edge id=":4_0" function="internal">
    <lane id=":4_0_0" index="0" disallow="pedestrian tram rail_urban rail rail_electric rail_fast ship" speed="18.06" length="40.06" width="3.75" shape="972.87,1260.57,20.00 964.38,1252.28,19.96 955.36,1244.53,19.92 947.48,1238.31,19.88 942.40,1234.63,19.86"/>
  </edge>
  <edge id=":4_1" function="internal">
    <lane id=":4_1_0" index="0" disallow="pedestrian tram rail_urban rail rail_electric rail_fast ship" speed="22.22" length="40.28" width="3.75" shape="972.87,1260.57,20.00 945.39,1231.13,20.00"/>
    <lane id=":4_1_1" index="1" disallow="pedestrian tram rail_urban rail rail_electric rail_fast ship" speed="22.22" length="40.28" width="3.75" shape="975.61,1258.01,20.00 948.13,1228.57,20.00"/>
    <lane id=":4_1_2" index="2" disallow="pedestrian tram rail_urban rail rail_electric rail_fast ship" speed="22.22" length="40.28" width="3.75" shape="978.35,1255.45,20.00 950.87,1226.01,20.00"/>
  </edge>
  <edge id=":5_0" function="internal">
    <lane id=":5_0_0" index="0" disallow="pedestrian tram rail_urban rail rail_electric rail_fast ship" speed="18.06" length="31.07" width="3.75" shape="178.44,888.19,0.06 173.90,889.99,0.05 167.72,893.17,0.04 160.36,897.98,0.02 152.31,904.63"/>
  </edge>
  <edge id=":5_1" function="internal">
    <lane id=":5_1_0" index="0" disallow="pedestrian tram rail_urban rail rail_electric rail_fast ship" speed="22.22" length="29.98" width="3.75" shape="174.31,884.29 152.31,904.63"/>
    <lane id=":5_1_1" index="1" disallow="pedestrian tram rail_urban rail rail_electric rail_fast ship" speed="22.22" length="29.98" width="3.75" shape="171.77,881.53 149.76,901.88"/>
    <lane id=":5_1_2" index="2" disallow="pedestrian tram rail_urban rail rail_electric rail_fast ship" speed="22.22" length="29.98" width="3.75" shape="169.23,878.77 147.21,899.13"/>
  </edge>
  <edge id=":6_0" function="internal">
    <lane id=":6_0_0" index="0" disallow="pedestrian tram rail_urban rail rail_electric rail_fast ship" speed="13.89" length="3.00" width="3.75" shape="679.65,1140.92,13.44 676.75,1140.13,13.36"/>
  </edge>
  <edge id=":6_1" function="internal">
    <lane id=":6_1_0" index="0" disallow="pedestrian tram rail_urban rail rail_electric rail_fast ship" speed="16.67" length="3.00" width="3.75" shape="679.65,1140.92,13.44 676.75,1140.13,13.40"/>
  </edge>
  <edge id=":7_0" function="internal">
    <lane id=":7_0_0" index="0" disallow="pedestrian tram rail_urban rail rail_electric rail_fast ship" speed="19.44" length="80.29" width="3.75" shape="107.35,214.45,20.00 101.13,203.55,20.00 89.09,182.96,20.00 75.93,160.86,20.00 66.33,145.43,20.00"/>
  </edge>
  <edge id=":7_1" function="internal">
    <lane id=":7_1_0" index="0" disallow="pedestrian tram rail_urban rail rail_electric rail_fast ship" speed="22.22" length="80.00" width="3.75" shape="110.75,211.97,20.00 66.33,145.43,20.00"/>
    <lane id=":7_1_1" index="1" disallow="pedestrian tram rail_urban rail rail_electric rail_fast ship" speed="22.22" length="80.00" width="3.75" shape="113.87,209.89,20.00 69.45,143.35,20.00"/>
    <lane id=":7_1_2" index="2" disallow="pedestrian tram rail_urban rail rail_electric rail_fast ship" speed="22.22" length="80.00" width="3.75" shape="116.98,207.80,20.00 72.57,141.27,20.00"/>
  </edge>
  <edge id=":8_0" function="internal">
    <lane id=":8_0_0" index="0" disallow="pedestrian tram rail_urban rail rail_electric rail_fast ship" speed="16.67" length="13.53" width="3.75" shape="210.40,655.25,7.50 210.01,641.72,7.54"/>
  </edge>
  <edge id=":8_1" function="internal">
    <lane id=":8_1_0" index="0" disallow="pedestrian tram rail_urban rail rail_electric rail_fast ship" speed="13.12" length="15.57" width="3.75" shape="210.40,655.25,7.50 210.75,651.44,7.51 211.89,647.66,7.52 213.69,644.13,7.53 216.03,641.08,7.54"/>
  </edge>
  <edge id=":8.7_0" function="internal">
    <lane id=":8.7_0_0" index="0" disallow="pedestrian tram rail_urban rail rail_electric rail_fast ship" speed="22.22" length="0.30" width="3.75" shape="447.32,622.57 447.56,622.39"/>
    <lane id=":8.7_0_1" index="1" disallow="pedestrian tram rail_urban rail rail_electric rail_fast ship" speed="22.22" length="0.30" width="3.75" shape="449.52,625.60 449.77,625.43"/>
    <lane id=":8.7_0_2" index="2" disallow="pedestrian tram rail_urban rail rail_electric rail_fast ship" speed="22.22" length="0.30" width="3.75" shape="451.73,628.63 451.97,628.46"/>
  </edge>
  <edge id=":9_0" function="internal">
    <lane id=":9_0_0" index="0" disallow="pedestrian tram rail_urban rail rail_electric rail_fast ship" speed="20.83" length="51.39" width="3.75" shape="930.07,312.99 937.47,309.87 950.14,304.08 964.33,297.17 976.33,290.67"/>
  </edge>
  <edge id=":9_1" function="internal">
    <lane id=":9_1_0" index="0" disallow="pedestrian tram rail_urban rail rail_electric rail_fast ship" speed="22.22" length="50.88" width="3.75" shape="932.65,316.77 976.33,290.67"/>
    <lane id=":9_1_1" index="1" disallow="pedestrian tram rail_urban rail rail_electric rail_fast ship" speed="22.22" length="50.88" width="3.75" shape="934.58,319.99 978.25,293.89"/>
    <lane id=":9_1_2" index="2" disallow="pedestrian tram rail_urban rail rail_electric rail_fast ship" speed="22.22" length="50.88" width="3.75" shape="936.50,323.21 980.18,297.11"/>
  </edge>
  <edge id="-0" from="0.begin" to="0" priority="1" type="driving" shape="1102.73,230.23 1101.77,230.83 1100.78,231.44 1099.77,232.07 1098.73,232.71 1097.67,233.37 1096.58,234.04 1095.46,234.72 1094.32,235.42 1093.16,236.14 1091.97,236.86 1090.75,237.61 1089.51,238.36 1088.25,239.13 1086.96,239.92 1085.65,240.71 1084.32,241.52 1082.96,242.35 1081.58,243.19 1080.18,244.04 1078.75,244.90 1077.30,245.78 1075.82,246.67 1074.33,247.57 1072.81,248.49 1071.27,249.42 1069.71,250.36 1068.13,251.31 1066.52,252.28 1064.89,253.26 1063.25,254.25 1061.58,255.25 1059.89,256.27 1058.18,257.30 1056.44,258.34 1054.69,259.39 1052.92,260.45 1051.13,261.53 1049.32,262.61 1047.48,263.71 1045.63,264.82 1043.76,265.94 1041.87,267.07 1039.96,268.22 1038.03,269.37 1036.09,270.53 1034.12,271.71 1032.14,272.90 1030.14,274.09 1028.12,275.30 1026.08,276.52 1024.02,277.75 1021.95,278.99 1019.86,280.24 1017.75,281.49 1015.63,282.76 1013.49,284.04 1011.33,285.33 1009.16,286.63 1006.97,287.94 1004.76,289.26 1002.54,290.58 1000.30,291.92 998.05,293.27 995.78,294.62 993.49,295.99 991.19,297.36">
    <lane id="-0_0" index="0" disallow="pedestrian tram rail_urban rail rail_electric rail_fast ship" speed="22.22" length="126.28" width="3.75" shape="1107.68,238.19 1106.72,238.79 1105.72,239.41 1104.70,240.04 1103.66,240.69 1102.59,241.35 1101.49,242.02 1100.37,242.71 1099.22,243.41 1098.05,244.13 1096.86,244.86 1095.64,245.61 1094.40,246.37 1093.13,247.14 1091.84,247.92 1090.52,248.72 1089.19,249.54 1087.82,250.36 1086.44,251.20 1085.03,252.06 1083.60,252.92 1082.15,253.80 1080.67,254.69 1079.18,255.60 1077.66,256.52 1076.11,257.45 1074.55,258.39 1072.96,259.34 1071.36,260.31 1069.73,261.29 1068.08,262.28 1066.41,263.29 1064.72,264.31 1063.00,265.33 1061.27,266.37 1059.52,267.43 1057.74,268.49 1055.95,269.57 1054.14,270.65 1052.30,271.75 1050.45,272.86 1048.58,273.98 1046.69,275.12 1044.78,276.26 1042.85,277.41 1040.90,278.58 1038.94,279.76 1036.95,280.94 1034.95,282.14 1032.93,283.35 1030.89,284.57 1028.83,285.79 1026.76,287.03 1024.67,288.28 1022.56,289.54 1020.44,290.81 1018.30,292.09 1016.14,293.38 1013.96,294.68 1011.77,295.99 1009.57,297.31 1007.34,298.63 1005.11,299.97 1002.85,301.32 1000.58,302.67 999.43,303.36" type="driving"/>
    <lane id="-0_1" index="1" disallow="pedestrian tram rail_urban rail rail_electric rail_fast ship" speed="22.22" length="126.28" width="3.75" shape="1105.70,235.01 1104.74,235.61 1103.75,236.22 1102.73,236.85 1101.69,237.50 1100.62,238.15 1099.52,238.83 1098.41,239.52 1097.26,240.22 1096.09,240.93 1094.90,241.66 1093.68,242.41 1092.44,243.16 1091.18,243.94 1089.89,244.72 1088.58,245.52 1087.24,246.33 1085.88,247.16 1084.50,248.00 1083.09,248.85 1081.66,249.71 1080.21,250.59 1078.73,251.48 1077.24,252.39 1075.72,253.30 1074.18,254.23 1072.61,255.18 1071.03,256.13 1069.42,257.10 1067.79,258.08 1066.14,259.07 1064.47,260.07 1062.78,261.09 1061.07,262.12 1059.34,263.16 1057.59,264.21 1055.81,265.28 1054.02,266.35 1052.21,267.44 1050.38,268.54 1048.52,269.65 1046.65,270.77 1044.76,271.90 1042.85,273.04 1040.92,274.20 1038.98,275.36 1037.01,276.54 1035.03,277.72 1033.02,278.92 1031.00,280.13 1028.97,281.35 1026.91,282.58 1024.84,283.81 1022.75,285.06 1020.64,286.32 1018.52,287.59 1016.37,288.87 1014.22,290.16 1012.04,291.46 1009.85,292.77 1007.64,294.09 1005.42,295.41 1003.18,296.75 1000.93,298.10 998.66,299.45 997.51,300.14" type="driving"/>
    <lane id="-0_2" index="2" disallow="pedestrian tram rail_urban rail rail_electric rail_fast ship" speed="22.22" length="126.28" width="3.75" shape="1103.72,231.82 1102.76,232.42 1101.77,233.03 1100.76,233.66 1099.72,234.31 1098.65,234.96 1097.56,235.63 1096.44,236.32 1095.30,237.02 1094.14,237.74 1092.95,238.46 1091.73,239.21 1090.49,239.96 1089.23,240.73 1087.94,241.52 1086.63,242.32 1085.29,243.13 1083.93,243.95 1082.55,244.79 1081.15,245.64 1079.72,246.51 1078.27,247.38 1076.79,248.27 1075.30,249.18 1073.78,250.09 1072.24,251.02 1070.68,251.96 1069.09,252.92 1067.49,253.89 1065.86,254.87 1064.21,255.86 1062.54,256.86 1060.85,257.88 1059.14,258.90 1057.41,259.94 1055.66,261.00 1053.88,262.06 1052.09,263.13 1050.28,264.22 1048.45,265.32 1046.60,266.43 1044.73,267.55 1042.84,268.68 1040.93,269.82 1039.00,270.98 1037.05,272.14 1035.09,273.32 1033.10,274.51 1031.10,275.70 1029.08,276.91 1027.04,278.13 1024.99,279.36 1022.91,280.60 1020.82,281.84 1018.72,283.10 1016.59,284.37 1014.45,285.65 1012.29,286.94 1010.12,288.24 1007.93,289.55 1005.72,290.87 1003.50,292.19 1001.26,293.53 999.01,294.88 996.74,296.23 995.59,296.92" type="driving"/>
  </edge>