<?xml version='1.0' encoding='UTF-8'?>
<!-- generated on 2022-11-12 23:41:54 by Eclipse SUMO netconvert Version 1.13.0
<configuration xmlns:xsi="http://www.w3.org/2001/XMLSchema-instance" xsi:noNamespaceSchemaLocation="http://sumo.dlr.de/xsd/netconvertConfiguration.xsd">

    <input>
        <opendrive-files value="map_v4\13\71732422\71732422.xodr"/>
    </input>

    <output>
        <output-file value="C:\Users\LinGe\AppData\Local\Temp\tmpda46t1i9\71732422.net.xml"/>
    </output>

    <processing>
        <geometry.max-grade.fix value="false"/>
    </processing>

    <tls_building>
        <tls.left-green.time value="0"/>
    </tls_building>

    <junctions>
        <rectangular-lane-cut value="true"/>
    </junctions>

    <report>
        <aggregate-warnings value="5"/>
    </report>

</configuration>
-->
<net xmlns:xsi="http://www.w3.org/2001/XMLSchema-instance" version="1.9" junctionCornerDetail="5" rectangularLaneCut="true" limitTurnSpeed="5.50" xsi:noNamespaceSchemaLocation="http://sumo.dlr.de/xsd/net_file.xsd">
  <location netOffset="1.56,101.26" convBoundary="0.00,0.00,1174.47,1302.51" origBoundary="-1.56,-101.26,1172.91,1201.26" projParameter="!"/>
  <type id="bidirectional" priority="1" speed="1.39" disallow="pedestrian tram rail_urban rail rail_electric rail_fast ship" width="3.65"/>
  <type id="border" priority="0" speed="1.39" disallow="all" discard="1" width="0.10"/>
  <type id="driving" priority="1" speed="13.89" disallow="pedestrian tram rail_urban rail rail_electric rail_fast ship" width="3.65"/>
  <type id="entry" priority="1" speed="22.22" disallow="pedestrian tram rail_urban rail rail_electric rail_fast ship" width="3.65"/>
  <type id="exit" priority="1" speed="22.22" disallow="pedestrian tram rail_urban rail rail_electric rail_fast ship" width="3.65"/>
  <type id="median" priority="0" speed="1.39" disallow="all" discard="1" width="0.10"/>
  <type id="mwyEntry" priority="1" speed="22.22" allow="private emergency authority army vip passenger hov taxi bus coach delivery truck trailer motorcycle evehicle custom1 custom2" width="3.65"/>
  <type id="mwyExit" priority="1" speed="22.22" allow="private emergency authority army vip passenger hov taxi bus coach delivery truck trailer motorcycle evehicle custom1 custom2" width="3.65"/>
  <type id="none" priority="0" speed="1.39" disallow="all" discard="1" width="1.00"/>
  <type id="offRamp" priority="1" speed="22.22" allow="private emergency authority army vip passenger hov taxi bus coach delivery truck trailer motorcycle evehicle custom1 custom2" width="3.65"/>
  <type id="onRamp" priority="1" speed="22.22" allow="private emergency authority army vip passenger hov taxi bus coach delivery truck trailer motorcycle evehicle custom1 custom2" width="3.65"/>
  <type id="parking" priority="1" speed="1.39" disallow="pedestrian tram rail_urban rail rail_electric rail_fast ship" width="2.50"/>
  <type id="rail" priority="3" speed="33.33" allow="rail_urban rail rail_electric rail_fast" width="3.65"/>
  <type id="restricted" priority="0" speed="13.89" disallow="all" width="3.65"/>
  <type id="roadWorks" priority="0" speed="1.39" allow="authority" width="3.65"/>
  <type id="shoulder" priority="0" speed="1.39" disallow="all" discard="1" width="1.00"/>
  <type id="special1" priority="1" speed="22.22" allow="custom1" discard="1" width="3.65"/>
  <type id="special2" priority="1" speed="22.22" allow="custom2" discard="1" width="3.65"/>
  <type id="special3" priority="1" speed="22.22" allow="custom1 custom2" discard="1" width="3.65"/>
  <type id="stop" priority="1" speed="13.89" disallow="pedestrian tram rail_urban rail rail_electric rail_fast ship" width="3.65"/>
  <type id="tram" priority="2" speed="13.89" allow="tram" width="3.65"/>
  <edge id=":0_0" function="internal">
    <lane id=":0_0_0" index="0" disallow="pedestrian tram rail_urban rail rail_electric rail_fast ship" speed="16.67" length="53.22" width="3.75" shape="1014.44,262.04 1002.45,269.13,0.04 988.65,278.03,0.09 976.59,286.16,0.14 969.80,290.97,0.17"/>
  </edge>
  <edge id=":0_1" function="internal">
    <lane id=":0_1_0" index="0" disallow="pedestrian tram rail_urban rail rail_electric rail_fast ship" speed="22.22" length="53.35" width="3.75" shape="1014.44,262.04 967.46,287.30"/>
    <lane id=":0_1_1" index="1" disallow="pedestrian tram rail_urban rail rail_electric rail_fast ship" speed="22.22" length="53.35" width="3.75" shape="1012.67,258.74 965.68,284.00"/>
    <lane id=":0_1_2" index="2" disallow="pedestrian tram rail_urban rail rail_electric rail_fast ship" speed="22.22" length="53.35" width="3.75" shape="1010.89,255.43 963.90,280.70"/>
  </edge>
  <edge id=":1_0" function="internal">
    <lane id=":1_0_0" index="0" disallow="pedestrian tram rail_urban rail rail_electric rail_fast ship" speed="15.28" length="90.31" width="3.75" shape="104.18,897.56 118.70,884.20 139.85,864.11 159.53,845.19 169.59,835.30"/>
  </edge>
  <edge id=":1_1" function="internal">
    <lane id=":1_1_0" index="0" disallow="pedestrian tram rail_urban rail rail_electric rail_fast ship" speed="22.22" length="90.44" width="3.75" shape="104.18,897.56 172.49,838.28"/>
    <lane id=":1_1_1" index="1" disallow="pedestrian tram rail_urban rail rail_electric rail_fast ship" speed="22.22" length="90.44" width="3.75" shape="106.64,900.39 174.95,841.12"/>
    <lane id=":1_1_2" index="2" disallow="pedestrian tram rail_urban rail rail_electric rail_fast ship" speed="22.22" length="90.44" width="3.75" shape="109.10,903.22 177.40,843.95"/>
  </edge>
  <edge id=":10_0" function="internal">
    <lane id=":10_0_0" index="0" disallow="pedestrian tram rail_urban rail rail_electric rail_fast ship" speed="16.67" length="62.10" width="3.75" shape="810.10,1021.59,20.00 815.97,1029.31,20.00 826.90,1043.11,20.00 839.22,1058.18,20.00 849.28,1069.74,20.00"/>
  </edge>
  <edge id=":10_1" function="internal">
    <lane id=":10_1_0" index="0" disallow="pedestrian tram rail_urban rail rail_electric rail_fast ship" speed="22.22" length="61.70" width="3.75" shape="807.05,1024.76,20.00 849.28,1069.74,20.00"/>
    <lane id=":10_1_1" index="1" disallow="pedestrian tram rail_urban rail rail_electric rail_fast ship" speed="22.22" length="61.70" width="3.75" shape="804.32,1027.32,20.00 846.55,1072.31,20.00"/>
    <lane id=":10_1_2" index="2" disallow="pedestrian tram rail_urban rail rail_electric rail_fast ship" speed="22.22" length="61.70" width="3.75" shape="801.58,1029.89,20.00 843.82,1074.88,20.00"/>
  </edge>
  <edge id=":11_0" function="internal">
    <lane id=":11_0_0" index="0" disallow="pedestrian tram rail_urban rail rail_electric rail_fast ship" speed="11.11" length="19.36" width="3.75" shape="763.95,541.91,7.63 762.13,545.95,7.65 760.08,550.78,7.66 758.10,555.64,7.67 756.53,559.78,7.69"/>
  </edge>
  <edge id=":11_1" function="internal">
    <lane id=":11_1_0" index="0" disallow="pedestrian tram rail_urban rail rail_electric rail_fast ship" speed="10.42" length="20.44" width="3.75" shape="763.95,541.91,7.63 761.69,545.91,7.65 758.52,550.55,7.67 755.07,555.00,7.69 751.98,558.41,7.70"/>
  </edge>
  <edge id=":12_0" function="internal">
    <lane id=":12_0_0" index="0" disallow="pedestrian tram rail_urban rail rail_electric rail_fast ship" speed="22.22" length="46.63" width="3.75" shape="574.76,399.18,6.14 620.94,392.69,6.10"/>
  </edge>
  <edge id=":12_1" function="internal">
    <lane id=":12_1_0" index="0" disallow="pedestrian tram rail_urban rail rail_electric rail_fast ship" speed="15.97" length="46.37" width="3.75" shape="575.75,403.08,6.21 584.14,400.96,6.19 598.29,397.65,6.15 612.47,394.45,6.12 620.94,392.69,6.10"/>
  </edge>
  <edge id=":13_0" function="internal">
    <lane id=":13_0_0" index="0" disallow="pedestrian tram rail_urban rail rail_electric rail_fast ship" speed="11.11" length="65.57" width="3.75" shape="735.28,701.76,13.51 734.97,713.41,13.52 734.61,734.54,13.53 734.33,755.67,13.54 734.28,767.32,13.55"/>
  </edge>
  <edge id=":13_1" function="internal">
    <lane id=":13_1_0" index="0" disallow="pedestrian tram rail_urban rail rail_electric rail_fast ship" speed="12.50" length="65.30" width="3.75" shape="731.34,702.09,13.44 734.28,767.32,13.55"/>
  </edge>
  <edge id=":14_0" function="internal">
    <lane id=":14_0_0" index="0" disallow="pedestrian tram rail_urban rail rail_electric rail_fast ship" speed="19.44" length="3.00" width="3.75" shape="372.17,904.97,6.05 369.24,904.35,5.94"/>
  </edge>
  <edge id=":14_1" function="internal">
    <lane id=":14_1_0" index="0" disallow="pedestrian tram rail_urban rail rail_electric rail_fast ship" speed="14.58" length="3.00" width="3.75" shape="372.17,904.97,6.00 369.24,904.35,5.94"/>
  </edge>
  <edge id=":14.13_0" function="internal">
    <lane id=":14.13_0_0" index="0" disallow="pedestrian tram rail_urban rail rail_electric rail_fast ship" speed="22.22" length="0.30" width="3.75" shape="411.38,621.63,20.00 411.18,621.39,20.00"/>
    <lane id=":14.13_0_1" index="1" disallow="pedestrian tram rail_urban rail rail_electric rail_fast ship" speed="22.22" length="0.30" width="3.75" shape="414.29,619.27,20.00 414.10,619.04,20.00"/>
    <lane id=":14.13_0_2" index="2" disallow="pedestrian tram rail_urban rail rail_electric rail_fast ship" speed="22.22" length="0.30" width="3.75" shape="417.21,616.91,20.00 417.02,616.68,20.00"/>
  </edge>
  <edge id=":15_0" function="internal">
    <lane id=":15_0_0" index="0" disallow="pedestrian tram rail_urban rail rail_electric rail_fast ship" speed="8.33" length="38.04" width="3.75" shape="247.38,512.12,13.43 236.12,475.78,13.48"/>
  </edge>
  <edge id=":15_1" function="internal">
    <lane id=":15_1_0" index="0" disallow="pedestrian tram rail_urban rail rail_electric rail_fast ship" speed="9.03" length="37.80" width="3.75" shape="251.08,510.48,13.37 247.93,503.89,13.39 243.26,493.28,13.43 238.76,482.60,13.46 236.12,475.78,13.48"/>
  </edge>
  <edge id=":18.17_0" function="internal">
    <lane id=":18.17_0_0" index="0" disallow="pedestrian tram rail_urban rail rail_electric rail_fast ship" speed="19.44" length="0.30" width="3.75" shape="399.64,911.73,7.01 399.35,911.65,7.00"/>
  </edge>
  <edge id=":2_0" function="internal">
    <lane id=":2_0_0" index="0" disallow="pedestrian tram rail_urban rail rail_electric rail_fast ship" speed="22.22" length="97.10" width="3.75" shape="156.70,217.14,20.00 168.63,234.17,20.00 187.08,259.71,20.00 204.58,283.61,20.00 213.67,295.76,20.00"/>
  </edge>
  <edge id=":2_1" function="internal">
    <lane id=":2_1_0" index="0" disallow="pedestrian tram rail_urban rail rail_electric rail_fast ship" speed="22.22" length="97.20" width="3.75" shape="156.70,217.14,20.00 210.31,298.19,20.00"/>
    <lane id=":2_1_1" index="1" disallow="pedestrian tram rail_urban rail rail_electric rail_fast ship" speed="22.22" length="97.20" width="3.75" shape="153.57,219.20,20.00 207.19,300.27,20.00"/>
    <lane id=":2_1_2" index="2" disallow="pedestrian tram rail_urban rail rail_electric rail_fast ship" speed="22.22" length="97.20" width="3.75" shape="150.43,221.26,20.00 204.06,302.35,20.00"/>
  </edge>
  <edge id=":2.1_0" function="internal">
    <lane id=":2.1_0_0" index="0" disallow="pedestrian tram rail_urban rail rail_electric rail_fast ship" speed="22.22" length="0.30" width="3.75" shape="622.19,494.99 621.95,495.17"/>
    <lane id=":2.1_0_1" index="1" disallow="pedestrian tram rail_urban rail rail_electric rail_fast ship" speed="22.22" length="0.30" width="3.75" shape="619.99,491.96 619.74,492.13"/>
    <lane id=":2.1_0_2" index="2" disallow="pedestrian tram rail_urban rail rail_electric rail_fast ship" speed="22.22" length="0.30" width="3.75" shape="617.78,488.92 617.54,489.10"/>
  </edge>
  <edge id=":22.21_0" function="internal">
    <lane id=":22.21_0_0" index="0" disallow="pedestrian tram rail_urban rail rail_electric rail_fast ship" speed="8.33" length="0.29" width="3.75" shape="272.33,623.54,8.89 272.34,623.25,8.90"/>
  </edge>
  <edge id=":26.25_0" function="internal">
    <lane id=":26.25_0_0" index="0" disallow="pedestrian tram rail_urban rail rail_electric rail_fast ship" speed="22.22" length="0.30" width="3.75" shape="437.81,402.00,11.67 438.11,402.03,11.66"/>
  </edge>
  <edge id=":3_0" function="internal">
    <lane id=":3_0_0" index="0" disallow="pedestrian tram rail_urban rail rail_electric rail_fast ship" speed="20.83" length="63.13" width="3.75" shape="923.19,1181.36,20.00 912.16,1170.50,20.00 897.64,1157.00,20.00 884.32,1144.96,20.00 876.89,1138.46,20.00"/>
  </edge>
  <edge id=":3_1" function="internal">
    <lane id=":3_1_0" index="0" disallow="pedestrian tram rail_urban rail rail_electric rail_fast ship" speed="22.22" length="63.26" width="3.75" shape="923.19,1181.36,20.00 879.79,1135.33,20.00"/>
    <lane id=":3_1_1" index="1" disallow="pedestrian tram rail_urban rail rail_electric rail_fast ship" speed="22.22" length="63.26" width="3.75" shape="925.92,1178.79,20.00 882.52,1132.76,20.00"/>
    <lane id=":3_1_2" index="2" disallow="pedestrian tram rail_urban rail rail_electric rail_fast ship" speed="22.22" length="63.26" width="3.75" shape="928.64,1176.21,20.00 885.25,1130.19,20.00"/>
  </edge>
  <edge id=":30.29_0" function="internal">
    <lane id=":30.29_0_0" index="0" disallow="pedestrian tram rail_urban rail rail_electric rail_fast ship" speed="11.11" length="0.29" width="3.75" shape="752.62,573.34,8.79 752.56,573.63,8.80"/>
  </edge>
  <edge id=":33.32_0" function="internal">
    <lane id=":33.32_0_0" index="0" disallow="pedestrian tram rail_urban rail rail_electric rail_fast ship" speed="9.72" length="0.30" width="3.75" shape="366.46,715.83,10.57 366.40,715.54,10.57"/>
  </edge>
  <edge id=":35.34_0" function="internal">
    <lane id=":35.34_0_0" index="0" disallow="pedestrian tram rail_urban rail rail_electric rail_fast ship" speed="13.89" length="0.30" width="3.75" shape="559.33,325.36,10.27 559.62,325.41,10.27"/>
  </edge>
  <edge id=":37.36_0" function="internal">
    <lane id=":37.36_0_0" index="0" disallow="pedestrian tram rail_urban rail rail_electric rail_fast ship" speed="9.72" length="0.30" width="3.75" shape="1176.20,803.62,9.11 1176.17,803.92,9.11"/>
  </edge>
  <edge id=":39.38_0" function="internal">
    <lane id=":39.38_0_0" index="0" disallow="pedestrian tram rail_urban rail rail_electric rail_fast ship" speed="9.72" length="0.29" width="3.75" shape="471.92,651.56,10.61 471.64,651.52,10.61"/>
  </edge>
  <edge id=":4_0" function="internal">
    <lane id=":4_0_0" index="0" disallow="pedestrian tram rail_urban rail rail_electric rail_fast ship" speed="20.83" length="40.89" width="3.75" shape="124.72,916.26,0.13 119.14,919.39,0.11 110.39,924.86,0.08 100.36,931.76,0.04 90.94,939.19"/>
  </edge>
  <edge id=":4_1" function="internal">
    <lane id=":4_1_0" index="0" disallow="pedestrian tram rail_urban rail rail_electric rail_fast ship" speed="22.22" length="40.21" width="3.75" shape="121.29,912.81 90.94,939.19"/>
    <lane id=":4_1_1" index="1" disallow="pedestrian tram rail_urban rail rail_electric rail_fast ship" speed="22.22" length="40.21" width="3.75" shape="118.83,909.98 88.48,936.36"/>
    <lane id=":4_1_2" index="2" disallow="pedestrian tram rail_urban rail rail_electric rail_fast ship" speed="22.22" length="40.21" width="3.75" shape="116.37,907.15 86.02,933.52"/>
  </edge>
  <edge id=":5_0" function="internal">
    <lane id=":5_0_0" index="0" disallow="pedestrian tram rail_urban rail rail_electric rail_fast ship" speed="19.44" length="3.00" width="3.75" shape="746.63,1053.73,15.76 744.00,1052.31,15.68"/>
  </edge>
  <edge id=":5_1" function="internal">
    <lane id=":5_1_0" index="0" disallow="pedestrian tram rail_urban rail rail_electric rail_fast ship" speed="14.58" length="3.00" width="3.75" shape="746.63,1053.73,15.76 744.00,1052.30,15.72"/>
  </edge>
  <edge id=":6_0" function="internal">
    <lane id=":6_0_0" index="0" disallow="pedestrian tram rail_urban rail rail_electric rail_fast ship" speed="15.28" length="44.74" width="3.75" shape="161.46,273.74,20.00 158.51,267.39,20.00 153.40,256.94,20.00 147.12,244.99,20.00 140.68,234.16,20.00"/>
  </edge>
  <edge id=":6_1" function="internal">
    <lane id=":6_1_0" index="0" disallow="pedestrian tram rail_urban rail rail_electric rail_fast ship" speed="22.22" length="44.25" width="3.75" shape="165.05,271.10,20.00 140.68,234.16,20.00"/>
    <lane id=":6_1_1" index="1" disallow="pedestrian tram rail_urban rail rail_electric rail_fast ship" speed="22.22" length="44.25" width="3.75" shape="168.18,269.03,20.00 143.82,232.09,20.00"/>
    <lane id=":6_1_2" index="2" disallow="pedestrian tram rail_urban rail rail_electric rail_fast ship" speed="22.22" length="44.25" width="3.75" shape="171.30,266.96,20.00 146.95,230.03,20.00"/>
  </edge>
  <edge id=":6.5_0" function="internal">
    <lane id=":6.5_0_0" index="0" disallow="pedestrian tram rail_urban rail rail_electric rail_fast ship" speed="22.22" length="0.30" width="3.75" shape="608.57,476.77 608.81,476.59"/>
    <lane id=":6.5_0_1" index="1" disallow="pedestrian tram rail_urban rail rail_electric rail_fast ship" speed="22.22" length="0.30" width="3.75" shape="610.77,479.80 611.02,479.62"/>
    <lane id=":6.5_0_2" index="2" disallow="pedestrian tram rail_urban rail rail_electric rail_fast ship" speed="22.22" length="0.30" width="3.75" shape="612.98,482.83 613.22,482.66"/>
  </edge>
  <edge id=":7_0" function="internal">
    <lane id=":7_0_0" index="0" disallow="pedestrian tram rail_urban rail rail_electric rail_fast ship" speed="8.33" length="2.99" width="3.75" shape="260.85,687.99,6.98 261.71,685.12,7.08"/>
  </edge>
  <edge id=":7_1" function="internal">
    <lane id=":7_1_0" index="0" disallow="pedestrian tram rail_urban rail rail_electric rail_fast ship" speed="11.11" length="3.00" width="3.75" shape="260.85,687.99,6.98 261.72,685.11,7.03"/>
  </edge>
  <edge id=":8_0" function="internal">
    <lane id=":8_0_0" index="0" disallow="pedestrian tram rail_urban rail rail_electric rail_fast ship" speed="22.22" length="85.30" width="3.75" shape="837.00,328.45,0.00 849.04,322.72,0.00 872.04,311.53,0.00 896.65,299.38,0.00 913.51,290.73"/>
  </edge>
  <edge id=":8_1" function="internal">
    <lane id=":8_1_0" index="0" disallow="pedestrian tram rail_urban rail rail_electric rail_fast ship" speed="22.22" length="84.99" width="3.75" shape="839.16,332.02 913.51,290.73"/>
    <lane id=":8_1_1" index="1" disallow="pedestrian tram rail_urban rail rail_electric rail_fast ship" speed="22.22" length="84.99" width="3.75" shape="841.00,335.29 915.31,294.02"/>
    <lane id=":8_1_2" index="2" disallow="pedestrian tram rail_urban rail rail_electric rail_fast ship" speed="22.22" length="84.99" width="3.75" shape="842.85,338.55 917.10,297.31"/>
  </edge>
  <edge id=":9_0" function="internal">
    <lane id=":9_0_0" index="0" disallow="pedestrian tram rail_urban rail rail_electric rail_fast ship" speed="22.22" length="3.00" width="3.75" shape="406.78,398.54,12.37 409.76,398.92,12.30"/>
  </edge>
  <edge id=":9_1" function="internal">
    <lane id=":9_1_0" index="0" disallow="pedestrian tram rail_urban rail rail_electric rail_fast ship" speed="15.97" length="3.00" width="3.75" shape="406.78,398.54,12.37 409.76,398.92,12.34"/>
  </edge>
  <edge id=":9.10_0" function="internal">
    <lane id=":9.10_0_0" index="0" disallow="pedestrian tram rail_urban rail rail_electric rail_fast ship" speed="22.22" length="0.30" width="3.75" shape="428.89,607.10,20.00 429.07,607.33,20.00"/>
    <lane id=":9.10_0_1" index="1" disallow="pedestrian tram rail_urban rail rail_electric rail_fast ship" speed="22.22" length="0.30" width="3.75" shape="425.97,609.45,20.00 426.16,609.69,20.00"/>
    <lane id=":9.10_0_2" index="2" disallow="pedestrian tram rail_urban rail rail_electric rail_fast ship" speed="22.22" length="0.30" width="3.75" shape="423.05,611.81,20.00 423.24,612.05,20.00"/>
  </edge>
  <edge id="-0" from="0.begin" to="0" priority="1" type="driving" shape="1102.73,202.87 1101.48,203.61 1100.20,204.35 1098.90,205.10 1097.58,205.87 1096.24,206.64 1094.88,207.42 1093.50,208.20 1092.10,209.00 1090.68,209.81 1089.24,210.62 1087.78,211.45 1086.30,212.28 1084.80,213.12 1083.28,213.97 1081.75,214.83 1080.19,215.69 1078.62,216.57 1077.02,217.45 1075.41,218.34 1073.78,219.24 1072.14,220.15 1070.47,221.07 1068.79,222.00 1067.09,222.93 1065.37,223.87 1063.64,224.82 1061.88,225.78 1060.11,226.74 1058.33,227.72 1056.52,228.70 1054.71,229.69 1052.87,230.68 1051.02,231.69 1049.15,232.70 1047.27,233.72 1045.37,234.75 1043.45,235.78 1041.52,236.83 1039.57,237.88 1037.61,238.94 1035.64,240.00 1033.64,241.08 1031.64,242.16 1029.62,243.24 1027.58,244.34 1025.53,245.44 1023.47,246.55 1021.39,247.67 1019.30,248.79 1017.20,249.92 1015.08,251.06 1012.95,252.20 1010.81,253.35 1008.65,254.51 1006.48,255.68">
    <lane id="-0_0" index="0" disallow="pedestrian tram rail_urban rail rail_electric rail_fast ship" speed="22.22" length="105.99" width="3.75" shape="1107.46,210.97 1106.20,211.71 1104.90,212.46 1103.59,213.22 1102.26,213.99 1100.91,214.77 1099.53,215.55 1098.14,216.35 1096.73,217.15 1095.30,217.96 1093.85,218.78 1092.38,219.61 1090.89,220.45 1089.38,221.30 1087.86,222.15 1086.31,223.01 1084.75,223.89 1083.17,224.76 1081.57,225.65 1079.95,226.55 1078.32,227.45 1076.66,228.36 1074.99,229.28 1073.30,230.21 1071.60,231.15 1069.87,232.09 1068.13,233.04 1066.38,234.01 1064.60,234.97 1062.81,235.95 1061.00,236.93 1059.18,237.92 1057.34,238.92 1055.49,239.93 1053.62,240.94 1051.73,241.97 1049.83,243.00 1047.91,244.03 1045.97,245.08 1044.03,246.13 1042.06,247.19 1040.08,248.25 1038.09,249.33 1036.08,250.41 1034.06,251.50 1032.02,252.59 1029.97,253.70 1027.91,254.81 1025.83,255.92 1023.74,257.05 1021.64,258.18 1019.52,259.32 1017.38,260.46 1015.24,261.61 1014.44,262.04" type="driving"/>
    <lane id="-0_1" index="1" disallow="pedestrian tram rail_urban rail rail_electric rail_fast ship" speed="22.22" length="105.99" width="3.75" shape="1105.57,207.73 1104.31,208.47 1103.02,209.22 1101.71,209.97 1100.39,210.74 1099.04,211.51 1097.67,212.30 1096.28,213.09 1094.88,213.89 1093.45,214.70 1092.00,215.52 1090.54,216.35 1089.05,217.18 1087.55,218.03 1086.03,218.88 1084.49,219.74 1082.93,220.61 1081.35,221.49 1079.75,222.37 1078.14,223.27 1076.50,224.17 1074.85,225.08 1073.18,226.00 1071.50,226.93 1069.79,227.86 1068.07,228.80 1066.33,229.75 1064.58,230.71 1062.81,231.68 1061.02,232.66 1059.21,233.64 1057.39,234.63 1055.55,235.63 1053.70,236.63 1051.83,237.65 1049.94,238.67 1048.04,239.70 1046.12,240.73 1044.19,241.78 1042.24,242.83 1040.28,243.89 1038.30,244.95 1036.31,246.03 1034.31,247.11 1032.28,248.20 1030.25,249.29 1028.20,250.39 1026.13,251.50 1024.06,252.62 1021.97,253.74 1019.86,254.88 1017.74,256.01 1015.61,257.16 1013.47,258.31 1012.67,258.74" type="driving"/>
    <lane id="-0_2" index="2" disallow="pedestrian tram rail_urban rail rail_electric rail_fast ship" speed="22.22" length="105.99" width="3.75" shape="1103.68,204.49 1102.42,205.23 1101.14,205.97 1099.84,206.73 1098.52,207.49 1097.17,208.26 1095.81,209.04 1094.43,209.83 1093.02,210.63 1091.60,211.44 1090.16,212.26 1088.70,213.08 1087.22,213.91 1085.72,214.76 1084.20,215.61 1082.66,216.46 1081.10,217.33 1079.53,218.21 1077.93,219.09 1076.32,219.99 1074.69,220.89 1073.04,221.80 1071.38,222.71 1069.69,223.64 1067.99,224.57 1066.27,225.51 1064.53,226.46 1062.78,227.42 1061.01,228.39 1059.22,229.36 1057.42,230.34 1055.60,231.33 1053.76,232.33 1051.91,233.34 1050.04,234.35 1048.16,235.37 1046.26,236.40 1044.34,237.43 1042.41,238.48 1040.46,239.53 1038.50,240.59 1036.53,241.65 1034.53,242.73 1032.53,243.81 1030.51,244.89 1028.47,245.99 1026.42,247.09 1024.36,248.20 1022.28,249.32 1020.19,250.44 1018.09,251.57 1015.97,252.71 1013.84,253.85 1011.69,255.01 1010.89,255.43" type="driving"/>
  </edge>
  <edge id="-1" from="0" to="2.1" priority="1" type="driving" shape="1006.48,255.68 1005.01,256.46 1003.54,257.26 1002.06,258.05 1000.57,258.85 999.08,259.65 997.59,260.45 996.09,261.25 994.58,262.06 993.07,262.87 991.55,263.69 990.03,264.51 988.50,265.33 986.97,266.15 985.43,266.98 983.89,267.81 982.34,268.64 980.79,269.47 979.23,270.31 977.67,271.15 976.10,272.00 974.53,272.84 972.95,273.69 971.37,274.54 969.78,275.40 968.19,276.25 966.60,277.11 965.00,277.98 963.39,278.84 961.78,279.71 960.17,280.58 958.55,281.46 956.93,282.33 955.30,283.21 953.67,284.09 952.04,284.98 950.40,285.86 948.75,286.75 947.11,287.64 945.45,288.54 943.80,289.44 942.14,290.34 940.48,291.24 938.81,292.14 937.14,293.05 935.47,293.96 933.79,294.87 932.11,295.79 930.42,296.70 928.73,297.62 927.04,298.54 925.34,299.47 923.65,300.40 921.94,301.32 920.24,302.26 918.53,303.19 916.82,304.13 915.10,305.06 913.38,306.01 911.66,306.95 909.94,307.89 908.21,308.84 906.48,309.79 904.75,310.74 903.01,311.70 901.27,312.66 899.53,313.61 897.79,314.58 896.04,315.54 894.29,316.50 892.54,317.47 890.79,318.44 889.03,319.41 887.27,320.39 885.51,321.36 883.75,322.34 881.98,323.32 880.21,324.30 878.44,325.29 876.67,326.28 874.89,327.26 873.12,328.25 871.34,329.25 869.56,330.24 867.78,331.24 865.99,332.24 864.21,333.24 862.42,334.24 860.63,335.24 858.84,336.25 857.04,337.26 855.25,338.27 853.45,339.28 851.66,340.29 849.86,341.31 848.06,342.33 846.26,343.34 844.45,344.37 842.65,345.39 840.84,346.41 839.04,347.44 837.23,348.47 835.42,349.50 833.61,350.53 831.80,351.56 829.99,352.60 828.18,353.63 826.36,354.67 824.55,355.71 822.73,356.75 820.92,357.80 819.10,358.84 817.29,359.89 815.47,360.94 813.65,361.98 811.83,363.04 810.02,364.09 808.20,365.14 806.38,366.20 804.56,367.26 802.74,368.31 800.92,369.38 799.10,370.44 797.28,371.50 795.46,372.56 793.64,373.63 791.82,374.70 790.00,375.77 788.18,376.84 786.36,377.91 784.54,378.98 782.72,380.06 780.90,381.13 779.09,382.21 777.27,383.29 775.45,384.37 773.63,385.45 771.82,386.53 770.00,387.61 768.19,388.70 766.37,389.78 764.56,390.87 762.75,391.96 760.94,393.05 759.12,394.14 757.31,395.23 755.51,396.33 753.70,397.42 751.89,398.52 750.09,399.61 748.28,400.71 746.48,401.81 744.68,402.91 742.88,404.01 741.08,405.11 739.28,406.21 737.48,407.32 735.69,408.42 733.89,409.53 732.10,410.64 730.31,411.74 728.52,412.85 726.74,413.96 724.95,415.07 723.17,416.19 721.39,417.30 719.61,418.41 717.83,419.53 716.06,420.64 714.28,421.76 712.51,422.87 710.74,423.99 708.98,425.11 707.21,426.23 705.45,427.35 703.69,428.47 701.93,429.59 700.18,430.71 698.42,431.84 696.67,432.96 694.93,434.09 693.18,435.21 691.44,436.34 689.70,437.46 687.96,438.59 686.23,439.72 684.50,440.85 682.77,441.98 681.04,443.11 679.32,444.24 677.60,445.37 675.89,446.50 674.17,447.63 672.46,448.76 670.76,449.90 669.05,451.03 667.35,452.17 665.66,453.30 663.97,454.43 662.28,455.57 660.59,456.71 658.91,457.84 657.23,458.98 655.55,460.12 653.88,461.25 652.21,462.39 650.55,463.53 648.89,464.67 647.23,465.81 645.58,466.95 643.93,468.09 642.29,469.23 640.65,470.37 639.01,471.51 637.38,472.65 635.75,473.79 634.12,474.93 632.51,476.07 630.89,477.21 629.28,478.36 627.67,479.50 626.07,480.64 624.47,481.78 622.88,482.93 621.29,484.07 619.71,485.21 618.13,486.35 616.56,487.50">
    <lane id="-1_0" index="0" disallow="pedestrian tram rail_urban rail rail_electric rail_fast ship" speed="22.22" length="403.71" width="3.75" shape="967.46,287.30 966.23,287.96 964.62,288.83 963.01,289.70 961.38,290.58 959.76,291.46 958.13,292.34 956.50,293.22 954.86,294.11 953.22,295.00 951.57,295.89 949.92,296.78 948.27,297.68 946.61,298.58 944.95,299.48 943.28,300.38 941.61,301.29 939.94,302.20 938.27,303.11 936.59,304.02 934.90,304.94 933.22,305.86 931.53,306.78 929.83,307.70 928.14,308.63 926.44,309.55 924.73,310.48 923.03,311.42 921.32,312.35 919.60,313.29 917.89,314.23 916.17,315.17 914.45,316.11 912.72,317.06 910.99,318.01 909.26,318.96 907.53,319.91 905.80,320.87 904.06,321.83 902.31,322.79 900.57,323.75 898.82,324.71 897.08,325.68 895.32,326.65 893.57,327.62 891.81,328.59 890.06,329.56 888.29,330.54 886.53,331.52 884.77,332.50 883.00,333.48 881.23,334.47 879.46,335.45 877.68,336.44 875.91,337.43 874.13,338.43 872.35,339.42 870.57,340.42 868.79,341.42 867.00,342.42 865.22,343.42 863.43,344.42 861.64,345.43 859.85,346.44 858.06,347.45 856.26,348.46 854.47,349.47 852.67,350.49 850.87,351.50 849.07,352.52 847.27,353.54 845.47,354.57 843.67,355.59 841.87,356.62 840.06,357.64 838.26,358.67 836.45,359.70 834.64,360.74 832.83,361.77 831.02,362.81 829.21,363.84 827.40,364.88 825.59,365.92 823.78,366.97 821.97,368.01 820.16,369.06 818.34,370.10 816.53,371.15 814.72,372.20 812.90,373.25 811.09,374.31 809.27,375.36 807.46,376.42 805.64,377.47 803.83,378.53 802.01,379.59 800.20,380.66 798.38,381.72 796.57,382.78 794.75,383.85 792.94,384.92 791.12,385.99 789.31,387.06 787.49,388.13 785.68,389.20 783.87,390.27 782.05,391.35 780.24,392.43 778.43,393.50 776.62,394.58 774.81,395.66 773.00,396.74 771.19,397.83 769.38,398.91 767.58,400.00 765.77,401.08 763.97,402.17 762.16,403.26 760.36,404.35 758.56,405.44 756.75,406.53 754.95,407.62 753.16,408.72 751.36,409.81 749.56,410.91 747.77,412.01 745.98,413.10 744.18,414.20 742.39,415.30 740.60,416.40 738.82,417.51 737.03,418.61 735.25,419.71 733.47,420.82 731.69,421.92 729.91,423.03 728.13,424.14 726.36,425.25 724.58,426.36 722.81,427.47 721.05,428.58 719.28,429.69 717.52,430.80 715.75,431.91 713.99,433.03 712.24,434.14 710.48,435.26 708.73,436.38 706.98,437.49 705.23,438.61 703.49,439.73 701.74,440.85 700.00,441.97 698.27,443.09 696.53,444.21 694.80,445.33 693.07,446.45 691.35,447.58 689.62,448.70 687.90,449.82 686.18,450.95 684.47,452.07 682.76,453.20 681.05,454.32 679.35,455.45 677.65,456.58 675.95,457.70 674.25,458.83 672.56,459.96 670.87,461.09 669.19,462.22 667.51,463.35 665.83,464.48 664.16,465.61 662.49,466.74 660.82,467.87 659.16,469.00 657.50,470.13 655.85,471.27 654.19,472.40 652.55,473.53 650.91,474.66 649.27,475.80 647.63,476.93 646.00,478.06 644.37,479.20 642.75,480.33 641.13,481.46 639.52,482.60 637.91,483.73 636.31,484.87 634.71,486.00 633.11,487.14 631.52,488.27 629.93,489.40 628.35,490.54 626.77,491.67 625.20,492.81 623.63,493.94 622.19,494.99" type="driving"/>