<?xml version='1.0' encoding='UTF-8'?>
<!-- generated on 2022-09-25 13:34:23 by Eclipse SUMO netconvert Version 1.13.0
<configuration xmlns:xsi="http://www.w3.org/2001/XMLSchema-instance" xsi:noNamespaceSchemaLocation="http://sumo.dlr.de/xsd/netconvertConfiguration.xsd">

    <input>
        <opendrive-files value="map_new_new\20\53\53.xodr"/>
    </input>

    <output>
        <output-file value="C:\Users\LinGe\AppData\Local\Temp\tmpik0m_b2d\53.net.xml"/>
    </output>

    <processing>
        <geometry.max-grade.fix value="false"/>
    </processing>

    <tls_building>
        <tls.left-green.time value="0"/>
    </tls_building>

    <junctions>
        <rectangular-lane-cut value="true"/>
    </junctions>

    <report>
        <aggregate-warnings value="5"/>
    </report>

</configuration>
-->
<net xmlns:xsi="http://www.w3.org/2001/XMLSchema-instance" version="1.9" junctionCornerDetail="5" rectangularLaneCut="true" limitTurnSpeed="5.50" xsi:noNamespaceSchemaLocation="http://sumo.dlr.de/xsd/net_file.xsd">
  <location netOffset="104.13,101.26" convBoundary="0.00,0.00,1205.30,1302.51" origBoundary="-104.13,-101.26,1101.18,1201.26" projParameter="!"/>
  <type id="bidirectional" priority="1" speed="1.39" disallow="pedestrian tram rail_urban rail rail_electric rail_fast ship" width="3.65"/>
  <type id="border" priority="0" speed="1.39" disallow="all" discard="1" width="0.10"/>
  <type id="driving" priority="1" speed="13.89" disallow="pedestrian tram rail_urban rail rail_electric rail_fast ship" width="3.65"/>
  <type id="entry" priority="1" speed="22.22" disallow="pedestrian tram rail_urban rail rail_electric rail_fast ship" width="3.65"/>
  <type id="exit" priority="1" speed="22.22" disallow="pedestrian tram rail_urban rail rail_electric rail_fast ship" width="3.65"/>
  <type id="median" priority="0" speed="1.39" disallow="all" discard="1" width="0.10"/>
  <type id="mwyEntry" priority="1" speed="22.22" allow="private emergency authority army vip passenger hov taxi bus coach delivery truck trailer motorcycle evehicle custom1 custom2" width="3.65"/>
  <type id="mwyExit" priority="1" speed="22.22" allow="private emergency authority army vip passenger hov taxi bus coach delivery truck trailer motorcycle evehicle custom1 custom2" width="3.65"/>
  <type id="none" priority="0" speed="1.39" disallow="all" discard="1" width="1.00"/>
  <type id="offRamp" priority="1" speed="22.22" allow="private emergency authority army vip passenger hov taxi bus coach delivery truck trailer motorcycle evehicle custom1 custom2" width="3.65"/>
  <type id="onRamp" priority="1" speed="22.22" allow="private emergency authority army vip passenger hov taxi bus coach delivery truck trailer motorcycle evehicle custom1 custom2" width="3.65"/>
  <type id="parking" priority="1" speed="1.39" disallow="pedestrian tram rail_urban rail rail_electric rail_fast ship" width="2.50"/>
  <type id="rail" priority="3" speed="33.33" allow="rail_urban rail rail_electric rail_fast" width="3.65"/>
  <type id="restricted" priority="0" speed="13.89" disallow="all" width="3.65"/>
  <type id="roadWorks" priority="0" speed="1.39" allow="authority" width="3.65"/>
  <type id="shoulder" priority="0" speed="1.39" disallow="all" discard="1" width="1.00"/>
  <type id="special1" priority="1" speed="22.22" allow="custom1" discard="1" width="3.65"/>
  <type id="special2" priority="1" speed="22.22" allow="custom2" discard="1" width="3.65"/>
  <type id="special3" priority="1" speed="22.22" allow="custom1 custom2" discard="1" width="3.65"/>
  <type id="stop" priority="1" speed="13.89" disallow="pedestrian tram rail_urban rail rail_electric rail_fast ship" width="3.65"/>
  <type id="tram" priority="2" speed="13.89" allow="tram" width="3.65"/>
  <edge id=":0_0" function="internal">
    <lane id=":0_0_0" index="0" disallow="pedestrian tram rail_urban rail rail_electric rail_fast ship" speed="16.67" length="54.78" width="3.75" shape="956.46,355.52 944.53,363.17 930.64,372.89 918.45,381.78 911.64,386.97"/>
  </edge>
  <edge id=":0_1" function="internal">
    <lane id=":0_1_0" index="0" disallow="pedestrian tram rail_urban rail rail_electric rail_fast ship" speed="22.22" length="54.87" width="3.75" shape="956.46,355.52 909.23,383.38"/>
    <lane id=":0_1_1" index="1" disallow="pedestrian tram rail_urban rail rail_electric rail_fast ship" speed="22.22" length="54.87" width="3.75" shape="954.57,352.28 907.31,380.16"/>
    <lane id=":0_1_2" index="2" disallow="pedestrian tram rail_urban rail rail_electric rail_fast ship" speed="22.22" length="54.87" width="3.75" shape="952.68,349.04 905.39,376.94"/>
  </edge>
  <edge id=":1_0" function="internal">
    <lane id=":1_0_0" index="0" disallow="pedestrian tram rail_urban rail rail_electric rail_fast ship" speed="19.44" length="35.07" width="3.75" shape="243.15,867.44 251.20,859.83 258.03,852.28 263.21,845.77 266.34,841.26"/>
  </edge>
  <edge id=":1_1" function="internal">
    <lane id=":1_1_0" index="0" disallow="pedestrian tram rail_urban rail rail_electric rail_fast ship" speed="22.22" length="35.38" width="3.75" shape="243.15,867.44 270.01,844.42"/>
    <lane id=":1_1_1" index="1" disallow="pedestrian tram rail_urban rail rail_electric rail_fast ship" speed="22.22" length="35.38" width="3.75" shape="245.59,870.29 272.45,847.27"/>
    <lane id=":1_1_2" index="2" disallow="pedestrian tram rail_urban rail rail_electric rail_fast ship" speed="22.22" length="35.38" width="3.75" shape="248.03,873.13 274.89,850.12"/>
  </edge>
  <edge id=":10_0" function="internal">
    <lane id=":10_0_0" index="0" disallow="pedestrian tram rail_urban rail rail_electric rail_fast ship" speed="16.67" length="8.00" width="3.75" shape="997.53,1117.59,20.00 1003.01,1123.43,20.00"/>
  </edge>
  <edge id=":10_1" function="internal">
    <lane id=":10_1_0" index="0" disallow="pedestrian tram rail_urban rail rail_electric rail_fast ship" speed="22.22" length="8.00" width="3.75" shape="997.53,1117.59,20.00 1003.01,1123.43,20.00"/>
    <lane id=":10_1_1" index="1" disallow="pedestrian tram rail_urban rail rail_electric rail_fast ship" speed="22.22" length="8.00" width="3.75" shape="994.80,1120.16,20.00 1000.27,1125.99,20.00"/>
    <lane id=":10_1_2" index="2" disallow="pedestrian tram rail_urban rail rail_electric rail_fast ship" speed="22.22" length="8.00" width="3.75" shape="992.06,1122.73,20.00 997.54,1128.56,20.00"/>
  </edge>
  <edge id=":11_0" function="internal">
    <lane id=":11_0_0" index="0" disallow="pedestrian tram rail_urban rail rail_electric rail_fast ship" speed="11.11" length="2.98" width="3.75" shape="743.71,647.27,7.94 743.78,650.25,8.05"/>
  </edge>
  <edge id=":11_1" function="internal">
    <lane id=":11_1_0" index="0" disallow="pedestrian tram rail_urban rail rail_electric rail_fast ship" speed="16.67" length="3.04" width="3.75" shape="743.71,647.27,7.94 743.77,650.31,8.00"/>
  </edge>
  <edge id=":12_0" function="internal">
    <lane id=":12_0_0" index="0" disallow="pedestrian tram rail_urban rail rail_electric rail_fast ship" speed="16.67" length="8.11" width="3.75" shape="728.77,471.14,0.00 735.50,466.62"/>
  </edge>
  <edge id=":12_1" function="internal">
    <lane id=":12_1_0" index="0" disallow="pedestrian tram rail_urban rail rail_electric rail_fast ship" speed="22.22" length="8.02" width="3.75" shape="728.89,471.18 735.50,466.62"/>
    <lane id=":12_1_1" index="1" disallow="pedestrian tram rail_urban rail rail_electric rail_fast ship" speed="22.22" length="8.02" width="3.75" shape="731.02,474.27 737.62,469.72"/>
    <lane id=":12_1_2" index="2" disallow="pedestrian tram rail_urban rail rail_electric rail_fast ship" speed="22.22" length="8.02" width="3.75" shape="733.15,477.35 739.74,472.81"/>
  </edge>
  <edge id=":12.11_0" function="internal">
    <lane id=":12.11_0_0" index="0" disallow="pedestrian tram rail_urban rail rail_electric rail_fast ship" speed="22.22" length="0.30" width="3.75" shape="530.73,604.08,20.00 530.92,604.31,20.00"/>
    <lane id=":12.11_0_1" index="1" disallow="pedestrian tram rail_urban rail rail_electric rail_fast ship" speed="22.22" length="0.30" width="3.75" shape="527.81,606.43,20.00 528.00,606.67,20.00"/>
    <lane id=":12.11_0_2" index="2" disallow="pedestrian tram rail_urban rail rail_electric rail_fast ship" speed="22.22" length="0.30" width="3.75" shape="524.90,608.79,20.00 525.09,609.02,20.00"/>
  </edge>
  <edge id=":13_0" function="internal">
    <lane id=":13_0_0" index="0" disallow="pedestrian tram rail_urban rail rail_electric rail_fast ship" speed="12.82" length="18.19" width="3.75" shape="941.48,1045.61,20.00 941.21,1050.65,20.00 941.87,1055.16,20.00 943.47,1059.15,20.00 945.99,1062.61,20.00"/>
  </edge>
  <edge id=":13_1" function="internal">
    <lane id=":13_1_0" index="0" disallow="pedestrian tram rail_urban rail rail_electric rail_fast ship" speed="22.22" length="15.99" width="3.75" shape="935.07,1050.93,20.00 945.99,1062.61,20.00"/>
    <lane id=":13_1_1" index="1" disallow="pedestrian tram rail_urban rail rail_electric rail_fast ship" speed="22.22" length="15.99" width="3.75" shape="932.33,1053.49,20.00 943.26,1065.17,20.00"/>
    <lane id=":13_1_2" index="2" disallow="pedestrian tram rail_urban rail rail_electric rail_fast ship" speed="22.22" length="15.99" width="3.75" shape="929.59,1056.05,20.00 940.52,1067.73,20.00"/>
  </edge>
  <edge id=":14_0" function="internal">
    <lane id=":14_0_0" index="0" disallow="pedestrian tram rail_urban rail rail_electric rail_fast ship" speed="15.97" length="60.32" width="3.75" shape="570.09,627.13 521.03,662.23"/>
  </edge>
  <edge id=":14_1" function="internal">
    <lane id=":14_1_0" index="0" disallow="pedestrian tram rail_urban rail rail_electric rail_fast ship" speed="22.22" length="60.13" width="3.75" shape="567.47,624.08 521.03,662.23"/>
    <lane id=":14_1_1" index="1" disallow="pedestrian tram rail_urban rail rail_electric rail_fast ship" speed="22.22" length="60.13" width="3.75" shape="565.10,621.18 518.64,659.34"/>
    <lane id=":14_1_2" index="2" disallow="pedestrian tram rail_urban rail rail_electric rail_fast ship" speed="22.22" length="60.13" width="3.75" shape="562.73,618.27 516.25,656.45"/>
  </edge>
  <edge id=":15_0" function="internal">
    <lane id=":15_0_0" index="0" disallow="pedestrian tram rail_urban rail rail_electric rail_fast ship" speed="11.64" length="17.36" width="3.75" shape="253.23,264.48,20.00 254.79,259.80,20.00 255.25,255.46,20.00 254.61,251.48,20.00 252.88,247.84,20.00"/>
  </edge>
  <edge id=":15_1" function="internal">
    <lane id=":15_1_0" index="0" disallow="pedestrian tram rail_urban rail rail_electric rail_fast ship" speed="22.22" length="14.96" width="3.75" shape="261.14,260.32,20.00 252.88,247.84,20.00"/>
    <lane id=":15_1_1" index="1" disallow="pedestrian tram rail_urban rail rail_electric rail_fast ship" speed="22.22" length="14.96" width="3.75" shape="264.27,258.25,20.00 256.00,245.77,20.00"/>
    <lane id=":15_1_2" index="2" disallow="pedestrian tram rail_urban rail rail_electric rail_fast ship" speed="22.22" length="14.96" width="3.75" shape="267.39,256.18,20.00 259.13,243.70,20.00"/>
  </edge>
  <edge id=":17.16_0" function="internal">
    <lane id=":17.16_0_0" index="0" disallow="pedestrian tram rail_urban rail rail_electric rail_fast ship" speed="22.22" length="0.30" width="3.75" shape="513.22,618.60,20.00 513.03,618.37,20.00"/>
    <lane id=":17.16_0_1" index="1" disallow="pedestrian tram rail_urban rail rail_electric rail_fast ship" speed="22.22" length="0.30" width="3.75" shape="516.14,616.25,20.00 515.95,616.01,20.00"/>
    <lane id=":17.16_0_2" index="2" disallow="pedestrian tram rail_urban rail rail_electric rail_fast ship" speed="22.22" length="0.30" width="3.75" shape="519.05,613.89,20.00 518.87,613.66,20.00"/>
  </edge>
  <edge id=":2_0" function="internal">
    <lane id=":2_0_0" index="0" disallow="pedestrian tram rail_urban rail rail_electric rail_fast ship" speed="19.44" length="71.48" width="3.75" shape="215.18,149.23,20.00 224.87,162.94,20.00 238.40,181.16,20.00 251.01,197.74,20.00 257.90,206.53,20.00"/>
  </edge>
  <edge id=":2_1" function="internal">
    <lane id=":2_1_0" index="0" disallow="pedestrian tram rail_urban rail rail_electric rail_fast ship" speed="22.22" length="71.60" width="3.75" shape="215.18,149.23,20.00 254.50,209.05,20.00"/>
    <lane id=":2_1_1" index="1" disallow="pedestrian tram rail_urban rail rail_electric rail_fast ship" speed="22.22" length="71.60" width="3.75" shape="212.04,151.29,20.00 251.37,211.12,20.00"/>
    <lane id=":2_1_2" index="2" disallow="pedestrian tram rail_urban rail rail_electric rail_fast ship" speed="22.22" length="71.60" width="3.75" shape="208.91,153.34,20.00 248.24,213.18,20.00"/>
  </edge>
  <edge id=":2.1_0" function="internal">
    <lane id=":2.1_0_0" index="0" disallow="pedestrian tram rail_urban rail rail_electric rail_fast ship" speed="22.22" length="0.30" width="3.75" shape="711.29,511.54 711.05,511.71"/>
    <lane id=":2.1_0_1" index="1" disallow="pedestrian tram rail_urban rail rail_electric rail_fast ship" speed="22.22" length="0.30" width="3.75" shape="709.09,508.51 708.84,508.68"/>
    <lane id=":2.1_0_2" index="2" disallow="pedestrian tram rail_urban rail rail_electric rail_fast ship" speed="22.22" length="0.30" width="3.75" shape="706.88,505.47 706.64,505.65"/>
  </edge>
  <edge id=":22.21_0" function="internal">
    <lane id=":22.21_0_0" index="0" disallow="pedestrian tram rail_urban rail rail_electric rail_fast ship" speed="16.67" length="0.30" width="3.75" shape="641.84,1137.70,10.61 641.55,1137.61,10.61"/>
  </edge>
  <edge id=":25.24_0" function="internal">
    <lane id=":25.24_0_0" index="0" disallow="pedestrian tram rail_urban rail rail_electric rail_fast ship" speed="16.67" length="0.30" width="3.75" shape="288.94,414.52,13.49 288.93,414.22,13.50"/>
  </edge>
  <edge id=":27.26_0" function="internal">
    <lane id=":27.26_0_0" index="0" disallow="pedestrian tram rail_urban rail rail_electric rail_fast ship" speed="16.67" length="0.30" width="3.75" shape="495.91,351.26,12.33 496.20,351.31,12.32"/>
  </edge>
  <edge id=":3_0" function="internal">
    <lane id=":3_0_0" index="0" disallow="pedestrian tram rail_urban rail rail_electric rail_fast ship" speed="19.44" length="35.67" width="3.75" shape="1077.30,1235.71,20.00 1069.26,1227.95,19.95 1061.26,1221.34,19.91 1054.38,1216.30,19.87 1049.71,1213.24,19.84"/>
  </edge>
  <edge id=":3_1" function="internal">
    <lane id=":3_1_0" index="0" disallow="pedestrian tram rail_urban rail rail_electric rail_fast ship" speed="22.22" length="35.92" width="3.75" shape="1077.30,1235.71,20.00 1052.71,1209.54,20.00"/>
    <lane id=":3_1_1" index="1" disallow="pedestrian tram rail_urban rail rail_electric rail_fast ship" speed="22.22" length="35.92" width="3.75" shape="1080.04,1233.14,20.00 1055.44,1206.97,20.00"/>
    <lane id=":3_1_2" index="2" disallow="pedestrian tram rail_urban rail rail_electric rail_fast ship" speed="22.22" length="35.92" width="3.75" shape="1082.77,1230.58,20.00 1058.17,1204.40,20.00"/>
  </edge>
  <edge id=":31.30_0" function="internal">
    <lane id=":31.30_0_0" index="0" disallow="pedestrian tram rail_urban rail rail_electric rail_fast ship" speed="11.11" length="0.30" width="3.75" shape="743.83,651.12,8.07 743.84,651.41,8.09"/>
  </edge>
  <edge id=":33.32_0" function="internal">
    <lane id=":33.32_0_0" index="0" disallow="pedestrian tram rail_urban rail rail_electric rail_fast ship" speed="11.11" length="0.30" width="3.75" shape="713.04,739.65,5.78 712.99,739.36,5.77"/>
  </edge>
  <edge id=":35.34_0" function="internal">
    <lane id=":35.34_0_0" index="0" disallow="pedestrian tram rail_urban rail rail_electric rail_fast ship" speed="22.22" length="0.30" width="3.75" shape="849.11,364.03,13.98 849.36,364.19,13.98"/>
  </edge>
  <edge id=":37.36_0" function="internal">
    <lane id=":37.36_0_0" index="0" disallow="pedestrian tram rail_urban rail rail_electric rail_fast ship" speed="9.72" length="0.28" width="3.75" shape="606.09,561.92,4.30 606.10,562.20,4.29"/>
  </edge>
  <edge id=":39.38_0" function="internal">
    <lane id=":39.38_0_0" index="0" disallow="pedestrian tram rail_urban rail rail_electric rail_fast ship" speed="22.22" length="0.30" width="3.75" shape="138.53,1077.55,14.11 138.30,1077.36,14.11"/>
  </edge>
  <edge id=":4_0" function="internal">
    <lane id=":4_0_0" index="0" disallow="pedestrian tram rail_urban rail rail_electric rail_fast ship" speed="19.44" length="26.78" width="3.75" shape="207.04,936.50,0.04 202.70,937.57,0.04 197.19,939.67,0.03 190.71,943.21,0.01 183.48,948.62"/>
  </edge>
  <edge id=":4_1" function="internal">
    <lane id=":4_1_0" index="0" disallow="pedestrian tram rail_urban rail rail_electric rail_fast ship" speed="22.22" length="25.43" width="3.75" shape="202.78,932.05 183.48,948.62"/>
    <lane id=":4_1_1" index="1" disallow="pedestrian tram rail_urban rail rail_electric rail_fast ship" speed="22.22" length="25.43" width="3.75" shape="200.34,929.20 181.04,945.77"/>
    <lane id=":4_1_2" index="2" disallow="pedestrian tram rail_urban rail rail_electric rail_fast ship" speed="22.22" length="25.43" width="3.75" shape="197.89,926.36 178.59,942.92"/>
  </edge>
  <edge id=":5_0" function="internal">
    <lane id=":5_0_0" index="0" disallow="pedestrian tram rail_urban rail rail_electric rail_fast ship" speed="16.67" length="24.59" width="3.75" shape="857.19,1166.23,15.11 832.72,1163.72,15.07"/>
  </edge>
  <edge id=":5_1" function="internal">
    <lane id=":5_1_0" index="0" disallow="pedestrian tram rail_urban rail rail_electric rail_fast ship" speed="13.89" length="25.56" width="3.75" shape="857.19,1166.23,15.11 851.89,1165.22,15.09 844.74,1163.33,15.07 837.70,1161.10,15.05 832.70,1159.08,15.04"/>
  </edge>
  <edge id=":6_0" function="internal">
    <lane id=":6_0_0" index="0" disallow="pedestrian tram rail_urban rail rail_electric rail_fast ship" speed="19.44" length="51.53" width="3.75" shape="245.80,245.22,20.00 242.26,237.98,20.00 235.86,225.56,20.00 228.29,211.65,20.00 221.27,199.93,20.00"/>
  </edge>
  <edge id=":6_1" function="internal">
    <lane id=":6_1_0" index="0" disallow="pedestrian tram rail_urban rail rail_electric rail_fast ship" speed="22.22" length="51.08" width="3.75" shape="249.39,242.57,20.00 221.27,199.93,20.00"/>
    <lane id=":6_1_1" index="1" disallow="pedestrian tram rail_urban rail rail_electric rail_fast ship" speed="22.22" length="51.08" width="3.75" shape="252.52,240.51,20.00 224.40,197.86,20.00"/>
    <lane id=":6_1_2" index="2" disallow="pedestrian tram rail_urban rail rail_electric rail_fast ship" speed="22.22" length="51.08" width="3.75" shape="255.65,238.44,20.00 227.54,195.80,20.00"/>
  </edge>
  <edge id=":7_0" function="internal">
    <lane id=":7_0_0" index="0" disallow="pedestrian tram rail_urban rail rail_electric rail_fast ship" speed="16.67" length="3.00" width="3.75" shape="295.91,677.26,7.92 295.94,674.27,8.04"/>
  </edge>
  <edge id=":7_1" function="internal">
    <lane id=":7_1_0" index="0" disallow="pedestrian tram rail_urban rail rail_electric rail_fast ship" speed="19.44" length="3.00" width="3.75" shape="295.91,677.26,7.92 295.95,674.27,7.98"/>
  </edge>
  <edge id=":7.6_0" function="internal">
    <lane id=":7.6_0_0" index="0" disallow="pedestrian tram rail_urban rail rail_electric rail_fast ship" speed="22.22" length="0.30" width="3.75" shape="697.67,493.32 697.91,493.14"/>
    <lane id=":7.6_0_1" index="1" disallow="pedestrian tram rail_urban rail rail_electric rail_fast ship" speed="22.22" length="0.30" width="3.75" shape="699.87,496.35 700.12,496.17"/>
    <lane id=":7.6_0_2" index="2" disallow="pedestrian tram rail_urban rail rail_electric rail_fast ship" speed="22.22" length="0.30" width="3.75" shape="702.08,499.38 702.32,499.21"/>
  </edge>
  <edge id=":8_0" function="internal">
    <lane id=":8_0_0" index="0" disallow="pedestrian tram rail_urban rail rail_electric rail_fast ship" speed="19.44" length="88.41" width="3.75" shape="967.15,318.20,0.00 979.54,312.10,0.00 1003.35,300.13,0.00 1028.74,287.16,0.00 1045.92,278.06"/>
  </edge>
  <edge id=":8_1" function="internal">
    <lane id=":8_1_0" index="0" disallow="pedestrian tram rail_urban rail rail_electric rail_fast ship" speed="22.22" length="88.12" width="3.75" shape="969.35,321.75 1045.92,278.06"/>
    <lane id=":8_1_1" index="1" disallow="pedestrian tram rail_urban rail rail_electric rail_fast ship" speed="22.22" length="88.12" width="3.75" shape="971.22,325.00 1047.76,281.33"/>
    <lane id=":8_1_2" index="2" disallow="pedestrian tram rail_urban rail rail_electric rail_fast ship" speed="22.22" length="88.12" width="3.75" shape="973.10,328.25 1049.61,284.59"/>
  </edge>
  <edge id=":9_0" function="internal">
    <lane id=":9_0_0" index="0" disallow="pedestrian tram rail_urban rail rail_electric rail_fast ship" speed="16.67" length="19.47" width="3.75" shape="503.48,352.48,12.07 522.66,355.83,12.02"/>
  </edge>
  <edge id=":9_1" function="internal">
    <lane id=":9_1_0" index="0" disallow="pedestrian tram rail_urban rail rail_electric rail_fast ship" speed="13.19" length="20.71" width="3.75" shape="503.48,352.48,12.07 507.95,353.70,12.05 513.27,355.80,12.01 518.41,358.31,11.98 522.35,360.76,11.95"/>
  </edge>
  <edge id="-0" from="0.begin" to="0" priority="1" type="driving" shape="1205.30,202.87 1204.32,203.47 1203.32,204.07 1202.31,204.67 1201.28,205.28 1200.24,205.90 1199.18,206.53 1198.11,207.16 1197.03,207.81 1195.94,208.45 1194.82,209.11 1193.70,209.77 1192.56,210.43 1191.41,211.11 1190.25,211.79 1189.07,212.47 1187.88,213.17 1186.68,213.87 1185.46,214.57 1184.23,215.28 1182.99,216.00 1181.73,216.73 1180.46,217.46 1179.18,218.20 1177.89,218.94 1176.58,219.69 1175.27,220.45 1173.94,221.21 1172.59,221.98 1171.24,222.75 1169.87,223.53 1168.50,224.32 1167.11,225.11 1165.70,225.91 1164.29,226.72 1162.87,227.53 1161.43,228.34 1159.98,229.16 1158.52,229.99 1157.05,230.83 1155.57,231.67 1154.08,232.51 1152.57,233.36 1151.06,234.22 1149.53,235.08 1148.00,235.95 1146.45,236.82 1144.89,237.70 1143.33,238.59 1141.75,239.48 1140.16,240.37 1138.56,241.27 1136.95,242.18 1135.33,243.09 1133.71,244.01 1132.07,244.93 1130.42,245.86 1128.76,246.79 1127.09,247.73 1125.42,248.67 1123.73,249.62 1122.03,250.57 1120.33,251.53 1118.61,252.49 1116.89,253.46 1115.16,254.43 1113.42,255.41 1111.67,256.39 1109.91,257.38 1108.14,258.37 1106.36,259.37 1104.58,260.37 1102.78,261.38 1100.98,262.39 1099.17,263.41 1097.35,264.43 1095.53,265.46 1093.69,266.49 1091.85,267.52 1090.00,268.56 1088.14,269.60 1086.28,270.65 1084.40,271.71 1082.52,272.76 1080.64,273.82 1078.74,274.89 1076.84,275.96 1074.93,277.04 1073.01,278.11 1071.09,279.20 1069.16,280.28 1067.22,281.38 1065.27,282.47 1063.32,283.57 1061.37,284.67 1059.40,285.78 1057.43,286.89 1055.46,288.01 1053.47,289.13 1051.48,290.25 1049.49,291.38 1047.49,292.51 1045.48,293.65 1043.47,294.79 1041.45,295.93 1039.43,297.07 1037.40,298.22 1035.36,299.38 1033.32,300.53 1031.27,301.70 1029.22,302.86 1027.17,304.03 1025.11,305.20 1023.04,306.37 1020.97,307.55 1018.89,308.73 1016.81,309.92 1014.73,311.11 1012.64,312.30 1010.54,313.50 1008.45,314.69 1006.34,315.90 1004.24,317.10 1002.13,318.31 1000.01,319.52 997.89,320.73 995.77,321.95 993.64,323.17 991.51,324.39 989.38,325.62 987.24,326.85 985.10,328.08 982.96,329.32 980.81,330.55 978.66,331.79 976.51,333.04 974.35,334.28 972.19,335.53 970.03,336.78 967.86,338.04 965.69,339.30 963.52,340.56 961.35,341.82 959.18,343.08 957.00,344.35 954.82,345.62 952.64,346.89 950.45,348.16 948.27,349.44">
    <lane id="-0_0" index="0" disallow="pedestrian tram rail_urban rail rail_electric rail_fast ship" speed="22.22" length="291.96" width="3.75" shape="1210.14,210.91 1209.15,211.50 1208.14,212.11 1207.12,212.72 1206.08,213.34 1205.03,213.96 1203.97,214.59 1202.89,215.23 1201.80,215.88 1200.69,216.53 1199.58,217.19 1198.45,217.85 1197.30,218.52 1196.14,219.20 1194.97,219.88 1193.79,220.57 1192.59,221.27 1191.38,221.97 1190.16,222.68 1188.93,223.40 1187.68,224.12 1186.42,224.85 1185.15,225.58 1183.86,226.32 1182.56,227.07 1181.25,227.82 1179.93,228.58 1178.60,229.34 1177.25,230.11 1175.89,230.89 1174.52,231.67 1173.14,232.46 1171.75,233.26 1170.34,234.06 1168.93,234.86 1167.50,235.68 1166.06,236.49 1164.61,237.32 1163.15,238.15 1161.67,238.98 1160.19,239.82 1158.70,240.67 1157.19,241.52 1155.67,242.38 1154.15,243.24 1152.61,244.11 1151.06,244.99 1149.50,245.87 1147.93,246.75 1146.35,247.64 1144.76,248.54 1143.16,249.44 1141.55,250.35 1139.93,251.26 1138.30,252.18 1136.66,253.10 1135.01,254.03 1133.36,254.96 1131.69,255.90 1130.01,256.84 1128.32,257.79 1126.63,258.74 1124.92,259.70 1123.20,260.66 1121.48,261.63 1119.75,262.61 1118.01,263.58 1116.26,264.57 1114.50,265.56 1112.73,266.55 1110.95,267.55 1109.17,268.55 1107.37,269.56 1105.57,270.57 1103.76,271.58 1101.94,272.60 1100.12,273.63 1098.28,274.66 1096.44,275.69 1094.59,276.73 1092.74,277.78 1090.87,278.83 1089.00,279.88 1087.12,280.94 1085.23,282.00 1083.34,283.06 1081.43,284.13 1079.53,285.21 1077.61,286.28 1075.69,287.37 1073.76,288.45 1071.82,289.54 1069.88,290.64 1067.93,291.74 1065.97,292.84 1064.01,293.95 1062.04,295.06 1060.06,296.17 1058.08,297.29 1056.10,298.42 1054.10,299.54 1052.10,300.67 1050.10,301.81 1048.09,302.94 1046.07,304.09 1044.05,305.23 1042.02,306.38 1039.99,307.53 1037.95,308.69 1035.90,309.85 1033.85,311.01 1031.80,312.18 1029.74,313.35 1027.68,314.52 1025.61,315.70 1023.53,316.88 1021.46,318.07 1019.37,319.25 1017.28,320.44 1015.19,321.64 1013.10,322.83 1011.00,324.03 1008.89,325.24 1006.78,326.44 1004.67,327.65 1002.55,328.87 1000.43,330.08 998.31,331.30 996.18,332.52 994.05,333.75 991.92,334.98 989.78,336.21 987.64,337.44 985.49,338.68 983.34,339.91 981.19,341.16 979.04,342.40 976.88,343.65 974.72,344.90 972.56,346.15 970.40,347.41 968.23,348.66 966.06,349.92 963.89,351.19 961.71,352.45 959.54,353.72 957.36,354.99 956.46,355.52" type="driving"/>
    <lane id="-0_1" index="1" disallow="pedestrian tram rail_urban rail rail_electric rail_fast ship" speed="22.22" length="291.96" width="3.75" shape="1208.20,207.69 1207.22,208.29 1206.21,208.89 1205.19,209.50 1204.16,210.12 1203.11,210.74 1202.05,211.37 1200.98,212.01 1199.89,212.65 1198.79,213.30 1197.68,213.95 1196.55,214.62 1195.41,215.29 1194.25,215.96 1193.08,216.64 1191.90,217.33 1190.71,218.03 1189.50,218.73 1188.28,219.44 1187.05,220.15 1185.80,220.87 1184.54,221.60 1183.27,222.33 1181.99,223.07 1180.69,223.82 1179.39,224.57 1178.07,225.33 1176.73,226.09 1175.39,226.86 1174.03,227.64 1172.66,228.42 1171.28,229.21 1169.89,230.00 1168.49,230.80 1167.07,231.60 1165.65,232.42 1164.21,233.23 1162.76,234.06 1161.30,234.89 1159.83,235.72 1158.34,236.56 1156.85,237.41 1155.34,238.26 1153.83,239.12 1152.30,239.98 1150.76,240.85 1149.22,241.72 1147.66,242.60 1146.09,243.49 1144.51,244.38 1142.92,245.27 1141.32,246.17 1139.71,247.08 1138.09,247.99 1136.46,248.91 1134.83,249.83 1133.18,250.76 1131.52,251.69 1129.85,252.63 1128.17,253.57 1126.48,254.52 1124.79,255.47 1123.08,256.43 1121.37,257.40 1119.64,258.36 1117.91,259.34 1116.17,260.32 1114.42,261.30 1112.66,262.29 1110.89,263.28 1109.12,264.28 1107.33,265.28 1105.54,266.29 1103.74,267.30 1101.93,268.31 1100.11,269.33 1098.28,270.36 1096.45,271.39 1094.61,272.43 1092.76,273.46 1090.90,274.51 1089.03,275.56 1087.16,276.61 1085.28,277.67 1083.39,278.73 1081.50,279.79 1079.60,280.86 1077.69,281.94 1075.77,283.02 1073.85,284.10 1071.92,285.19 1069.98,286.28 1068.04,287.37 1066.09,288.47 1064.13,289.57 1062.17,290.68 1060.20,291.79 1058.22,292.91 1056.24,294.03 1054.25,295.15 1052.26,296.28 1050.26,297.41 1048.25,298.54 1046.24,299.68 1044.22,300.82 1042.20,301.97 1040.17,303.12 1038.14,304.27 1036.10,305.43 1034.05,306.59 1032.00,307.75 1029.95,308.92 1027.89,310.09 1025.82,311.26 1023.75,312.44 1021.68,313.62 1019.60,314.81 1017.51,315.99 1015.43,317.19 1013.33,318.38 1011.24,319.58 1009.14,320.78 1007.03,321.98 1004.92,323.19 1002.81,324.40 1000.69,325.61 998.57,326.83 996.44,328.05 994.31,329.27 992.18,330.50 990.05,331.72 987.91,332.96 985.76,334.19 983.62,335.43 981.47,336.67 979.32,337.91 977.16,339.15 975.01,340.40 972.85,341.65 970.68,342.91 968.52,344.16 966.35,345.42 964.18,346.68 962.00,347.94 959.83,349.21 957.65,350.48 955.47,351.75 954.57,352.28" type="driving"/>