<?xml version='1.0' encoding='UTF-8'?>
<!-- generated on 2022-09-25 13:26:12 by Eclipse SUMO netconvert Version 1.13.0
<configuration xmlns:xsi="http://www.w3.org/2001/XMLSchema-instance" xsi:noNamespaceSchemaLocation="http://sumo.dlr.de/xsd/netconvertConfiguration.xsd">

    <input>
        <opendrive-files value="map_new_new\21\13\13.xodr"/>
    </input>

    <output>
        <output-file value="C:\Users\LinGe\AppData\Local\Temp\tmpbgtg_do5\13.net.xml"/>
    </output>

    <processing>
        <geometry.max-grade.fix value="false"/>
    </processing>

    <tls_building>
        <tls.left-green.time value="0"/>
    </tls_building>

    <junctions>
        <rectangular-lane-cut value="true"/>
    </junctions>

    <report>
        <aggregate-warnings value="5"/>
    </report>

</configuration>
-->
<net xmlns:xsi="http://www.w3.org/2001/XMLSchema-instance" version="1.9" junctionCornerDetail="5" rectangularLaneCut="true" limitTurnSpeed="5.50" xsi:noNamespaceSchemaLocation="http://sumo.dlr.de/xsd/net_file.xsd">
  <location netOffset="234.54,101.26" convBoundary="0.00,0.00,1335.71,1302.51" origBoundary="-234.54,-101.26,1101.18,1201.26" projParameter="!"/>
  <type id="bidirectional" priority="1" speed="1.39" disallow="pedestrian tram rail_urban rail rail_electric rail_fast ship" width="3.65"/>
  <type id="border" priority="0" speed="1.39" disallow="all" discard="1" width="0.10"/>
  <type id="driving" priority="1" speed="13.89" disallow="pedestrian tram rail_urban rail rail_electric rail_fast ship" width="3.65"/>
  <type id="entry" priority="1" speed="22.22" disallow="pedestrian tram rail_urban rail rail_electric rail_fast ship" width="3.65"/>
  <type id="exit" priority="1" speed="22.22" disallow="pedestrian tram rail_urban rail rail_electric rail_fast ship" width="3.65"/>
  <type id="median" priority="0" speed="1.39" disallow="all" discard="1" width="0.10"/>
  <type id="mwyEntry" priority="1" speed="22.22" allow="private emergency authority army vip passenger hov taxi bus coach delivery truck trailer motorcycle evehicle custom1 custom2" width="3.65"/>
  <type id="mwyExit" priority="1" speed="22.22" allow="private emergency authority army vip passenger hov taxi bus coach delivery truck trailer motorcycle evehicle custom1 custom2" width="3.65"/>
  <type id="none" priority="0" speed="1.39" disallow="all" discard="1" width="1.00"/>
  <type id="offRamp" priority="1" speed="22.22" allow="private emergency authority army vip passenger hov taxi bus coach delivery truck trailer motorcycle evehicle custom1 custom2" width="3.65"/>
  <type id="onRamp" priority="1" speed="22.22" allow="private emergency authority army vip passenger hov taxi bus coach delivery truck trailer motorcycle evehicle custom1 custom2" width="3.65"/>
  <type id="parking" priority="1" speed="1.39" disallow="pedestrian tram rail_urban rail rail_electric rail_fast ship" width="2.50"/>
  <type id="rail" priority="3" speed="33.33" allow="rail_urban rail rail_electric rail_fast" width="3.65"/>
  <type id="restricted" priority="0" speed="13.89" disallow="all" width="3.65"/>
  <type id="roadWorks" priority="0" speed="1.39" allow="authority" width="3.65"/>
  <type id="shoulder" priority="0" speed="1.39" disallow="all" discard="1" width="1.00"/>
  <type id="special1" priority="1" speed="22.22" allow="custom1" discard="1" width="3.65"/>
  <type id="special2" priority="1" speed="22.22" allow="custom2" discard="1" width="3.65"/>
  <type id="special3" priority="1" speed="22.22" allow="custom1 custom2" discard="1" width="3.65"/>
  <type id="stop" priority="1" speed="13.89" disallow="pedestrian tram rail_urban rail rail_electric rail_fast ship" width="3.65"/>
  <type id="tram" priority="2" speed="13.89" allow="tram" width="3.65"/>
  <edge id=":0_0" function="internal">
    <lane id=":0_0_0" index="0" disallow="pedestrian tram rail_urban rail rail_electric rail_fast ship" speed="18.06" length="34.62" width="3.75" shape="1270.50,253.29 1261.35,259.41,0.02 1253.50,265.63,0.04 1247.41,271.08,0.05 1243.57,274.91,0.06"/>
  </edge>
  <edge id=":0_1" function="internal">
    <lane id=":0_1_0" index="0" disallow="pedestrian tram rail_urban rail rail_electric rail_fast ship" speed="22.22" length="34.86" width="3.75" shape="1270.50,253.29 1240.59,271.20"/>
    <lane id=":0_1_1" index="1" disallow="pedestrian tram rail_urban rail rail_electric rail_fast ship" speed="22.22" length="34.86" width="3.75" shape="1268.57,250.07 1238.66,267.98"/>
    <lane id=":0_1_2" index="2" disallow="pedestrian tram rail_urban rail rail_electric rail_fast ship" speed="22.22" length="34.86" width="3.75" shape="1266.64,246.86 1236.74,264.76"/>
  </edge>
  <edge id=":1_0" function="internal">
    <lane id=":1_0_0" index="0" disallow="pedestrian tram rail_urban rail rail_electric rail_fast ship" speed="19.44" length="91.27" width="3.75" shape="648.95,641.71 633.53,654.25 611.11,673.43 590.31,691.62 579.73,701.18"/>
  </edge>
  <edge id=":1_1" function="internal">
    <lane id=":1_1_0" index="0" disallow="pedestrian tram rail_urban rail rail_electric rail_fast ship" speed="22.22" length="91.13" width="3.75" shape="648.95,641.71 577.35,697.74"/>
    <lane id=":1_1_1" index="1" disallow="pedestrian tram rail_urban rail rail_electric rail_fast ship" speed="22.22" length="91.13" width="3.75" shape="646.74,638.69 574.96,694.85"/>
    <lane id=":1_1_2" index="2" disallow="pedestrian tram rail_urban rail rail_electric rail_fast ship" speed="22.22" length="91.13" width="3.75" shape="644.52,635.67 572.58,691.95"/>
  </edge>
  <edge id=":10_0" function="internal">
    <lane id=":10_0_0" index="0" disallow="pedestrian tram rail_urban rail rail_electric rail_fast ship" speed="19.44" length="50.35" width="3.75" shape="1144.45,297.11,0.17 1151.67,293.97,0.14 1164.00,288.31,0.09 1177.87,281.56,0.04 1189.72,275.14"/>
  </edge>
  <edge id=":10_1" function="internal">
    <lane id=":10_1_0" index="0" disallow="pedestrian tram rail_urban rail rail_electric rail_fast ship" speed="22.22" length="49.90" width="3.75" shape="1146.92,300.79 1189.72,275.14"/>
    <lane id=":10_1_1" index="1" disallow="pedestrian tram rail_urban rail rail_electric rail_fast ship" speed="22.22" length="49.90" width="3.75" shape="1148.84,304.00 1191.65,278.36"/>
    <lane id=":10_1_2" index="2" disallow="pedestrian tram rail_urban rail rail_electric rail_fast ship" speed="22.22" length="49.90" width="3.75" shape="1150.77,307.22 1193.58,281.58"/>
  </edge>
  <edge id=":11_0" function="internal">
    <lane id=":11_0_0" index="0" disallow="pedestrian tram rail_urban rail rail_electric rail_fast ship" speed="18.06" length="73.14" width="3.75" shape="1140.47,1121.03,20.00 1147.49,1130.05,20.00 1160.87,1146.75,20.00 1175.61,1164.75,20.00 1186.71,1177.69,20.00"/>
  </edge>
  <edge id=":11_1" function="internal">
    <lane id=":11_1_0" index="0" disallow="pedestrian tram rail_urban rail rail_electric rail_fast ship" speed="22.22" length="72.81" width="3.75" shape="1137.45,1124.07,20.00 1186.71,1177.69,20.00"/>
    <lane id=":11_1_1" index="1" disallow="pedestrian tram rail_urban rail rail_electric rail_fast ship" speed="22.22" length="72.81" width="3.75" shape="1134.69,1126.61,20.00 1183.95,1180.22,20.00"/>
    <lane id=":11_1_2" index="2" disallow="pedestrian tram rail_urban rail rail_electric rail_fast ship" speed="22.22" length="72.81" width="3.75" shape="1131.92,1129.15,20.00 1181.19,1182.76,20.00"/>
  </edge>
  <edge id=":12_0" function="internal">
    <lane id=":12_0_0" index="0" disallow="pedestrian tram rail_urban rail rail_electric rail_fast ship" speed="19.44" length="45.23" width="3.75" shape="840.22,838.60,19.89 836.52,832.58,19.91 829.89,822.81,19.94 821.82,811.77,19.97 813.80,801.95,20.00"/>
  </edge>
  <edge id=":12_1" function="internal">
    <lane id=":12_1_0" index="0" disallow="pedestrian tram rail_urban rail rail_electric rail_fast ship" speed="22.22" length="44.62" width="3.75" shape="843.59,835.18,20.00 813.80,801.95,20.00"/>
    <lane id=":12_1_1" index="1" disallow="pedestrian tram rail_urban rail rail_electric rail_fast ship" speed="22.22" length="44.62" width="3.75" shape="846.38,832.67,20.00 816.59,799.45,20.00"/>
    <lane id=":12_1_2" index="2" disallow="pedestrian tram rail_urban rail rail_electric rail_fast ship" speed="22.22" length="44.62" width="3.75" shape="849.17,830.17,20.00 819.39,796.95,20.00"/>
  </edge>
  <edge id=":13_0" function="internal">
    <lane id=":13_0_0" index="0" disallow="pedestrian tram rail_urban rail rail_electric rail_fast ship" speed="19.44" length="8.02" width="3.75" shape="664.59,602.58,0.00 671.18,598.01"/>
  </edge>
  <edge id=":13_1" function="internal">
    <lane id=":13_1_0" index="0" disallow="pedestrian tram rail_urban rail rail_electric rail_fast ship" speed="22.22" length="8.01" width="3.75" shape="664.59,602.58 671.18,598.01"/>
    <lane id=":13_1_1" index="1" disallow="pedestrian tram rail_urban rail rail_electric rail_fast ship" speed="22.22" length="8.01" width="3.75" shape="666.73,605.66 673.31,601.09"/>
    <lane id=":13_1_2" index="2" disallow="pedestrian tram rail_urban rail rail_electric rail_fast ship" speed="22.22" length="8.01" width="3.75" shape="668.88,608.74 675.44,604.18"/>
  </edge>
  <edge id=":13.12_0" function="internal">
    <lane id=":13.12_0_0" index="0" disallow="pedestrian tram rail_urban rail rail_electric rail_fast ship" speed="22.22" length="0.30" width="3.75" shape="663.34,593.75,20.00 663.52,593.98,20.00"/>
    <lane id=":13.12_0_1" index="1" disallow="pedestrian tram rail_urban rail rail_electric rail_fast ship" speed="22.22" length="0.30" width="3.75" shape="660.42,596.11,20.00 660.61,596.34,20.00"/>
    <lane id=":13.12_0_2" index="2" disallow="pedestrian tram rail_urban rail rail_electric rail_fast ship" speed="22.22" length="0.30" width="3.75" shape="657.50,598.46,20.00 657.69,598.70,20.00"/>
  </edge>
  <edge id=":14_0" function="internal">
    <lane id=":14_0_0" index="0" disallow="pedestrian tram rail_urban rail rail_electric rail_fast ship" speed="18.06" length="26.54" width="3.75" shape="825.08,532.37 820.63,532.42 814.88,533.48 807.99,535.95 800.15,540.20"/>
  </edge>
  <edge id=":14_1" function="internal">
    <lane id=":14_1_0" index="0" disallow="pedestrian tram rail_urban rail rail_electric rail_fast ship" speed="22.22" length="25.02" width="3.75" shape="821.25,526.79 800.15,540.20"/>
    <lane id=":14_1_1" index="1" disallow="pedestrian tram rail_urban rail rail_electric rail_fast ship" speed="22.22" length="25.02" width="3.75" shape="819.24,523.62 798.13,537.04"/>
    <lane id=":14_1_2" index="2" disallow="pedestrian tram rail_urban rail rail_electric rail_fast ship" speed="22.22" length="25.02" width="3.75" shape="817.23,520.45 796.11,533.88"/>
  </edge>
  <edge id=":15_0" function="internal">
    <lane id=":15_0_0" index="0" disallow="pedestrian tram rail_urban rail rail_electric rail_fast ship" speed="13.89" length="14.92" width="3.75" shape="1064.18,776.07,12.02 1062.83,790.93,12.06"/>
  </edge>
  <edge id=":15_1" function="internal">
    <lane id=":15_1_0" index="0" disallow="pedestrian tram rail_urban rail rail_electric rail_fast ship" speed="15.71" length="14.46" width="3.75" shape="1059.83,777.00,12.02 1061.38,780.32,12.03 1062.40,783.74,12.04 1062.88,787.27,12.05 1062.83,790.93,12.06"/>
  </edge>
  <edge id=":19.18_0" function="internal">
    <lane id=":19.18_0_0" index="0" disallow="pedestrian tram rail_urban rail rail_electric rail_fast ship" speed="22.22" length="0.30" width="3.75" shape="645.83,608.28,20.00 645.64,608.04,20.00"/>
    <lane id=":19.18_0_1" index="1" disallow="pedestrian tram rail_urban rail rail_electric rail_fast ship" speed="22.22" length="0.30" width="3.75" shape="648.74,605.92,20.00 648.56,605.69,20.00"/>
    <lane id=":19.18_0_2" index="2" disallow="pedestrian tram rail_urban rail rail_electric rail_fast ship" speed="22.22" length="0.30" width="3.75" shape="651.66,603.56,20.00 651.47,603.33,20.00"/>
  </edge>
  <edge id=":2_0" function="internal">
    <lane id=":2_0_0" index="0" disallow="pedestrian tram rail_urban rail rail_electric rail_fast ship" speed="15.97" length="43.57" width="3.75" shape="332.55,891.11 341.05,882.05,0.05 349.49,872.03,0.10 356.45,863.22,0.14 360.54,857.76,0.16"/>
  </edge>
  <edge id=":2_1" function="internal">
    <lane id=":2_1_0" index="0" disallow="pedestrian tram rail_urban rail rail_electric rail_fast ship" speed="22.22" length="43.74" width="3.75" shape="332.55,891.11 363.95,860.63"/>
    <lane id=":2_1_1" index="1" disallow="pedestrian tram rail_urban rail rail_electric rail_fast ship" speed="22.22" length="43.74" width="3.75" shape="335.17,893.79 366.55,863.32"/>
    <lane id=":2_1_2" index="2" disallow="pedestrian tram rail_urban rail rail_electric rail_fast ship" speed="22.22" length="43.74" width="3.75" shape="337.79,896.48 369.16,866.02"/>
  </edge>
  <edge id=":23.22_0" function="internal">
    <lane id=":23.22_0_0" index="0" disallow="pedestrian tram rail_urban rail rail_electric rail_fast ship" speed="9.72" length="0.30" width="3.75" shape="675.46,863.97,8.25 675.17,863.90,8.24"/>
  </edge>
  <edge id=":26.25_0" function="internal">
    <lane id=":26.25_0_0" index="0" disallow="pedestrian tram rail_urban rail rail_electric rail_fast ship" speed="9.72" length="0.28" width="3.75" shape="496.08,557.17,9.17 496.08,556.89,9.18"/>
  </edge>
  <edge id=":28.27_0" function="internal">
    <lane id=":28.27_0_0" index="0" disallow="pedestrian tram rail_urban rail rail_electric rail_fast ship" speed="16.67" length="0.30" width="3.75" shape="770.20,371.46,9.75 770.49,371.49,9.74"/>
  </edge>
  <edge id=":3_0" function="internal">
    <lane id=":3_0_0" index="0" disallow="pedestrian tram rail_urban rail rail_electric rail_fast ship" speed="19.44" length="70.70" width="3.75" shape="373.36,186.17,20.00 383.17,199.64,20.00 396.82,217.44,20.00 409.54,233.60,20.00 416.52,242.16,20.00"/>
  </edge>
  <edge id=":3_1" function="internal">
    <lane id=":3_1_0" index="0" disallow="pedestrian tram rail_urban rail rail_electric rail_fast ship" speed="22.22" length="70.86" width="3.75" shape="373.36,186.17,20.00 413.13,244.80,20.00"/>
    <lane id=":3_1_1" index="1" disallow="pedestrian tram rail_urban rail rail_electric rail_fast ship" speed="22.22" length="70.86" width="3.75" shape="370.25,188.27,20.00 410.03,246.91,20.00"/>
    <lane id=":3_1_2" index="2" disallow="pedestrian tram rail_urban rail rail_electric rail_fast ship" speed="22.22" length="70.86" width="3.75" shape="367.15,190.37,20.00 406.93,249.02,20.00"/>
  </edge>
  <edge id=":3.2_0" function="internal">
    <lane id=":3.2_0_0" index="0" disallow="pedestrian tram rail_urban rail rail_electric rail_fast ship" speed="22.22" length="0.30" width="3.75" shape="654.04,638.00 653.80,638.17"/>
    <lane id=":3.2_0_1" index="1" disallow="pedestrian tram rail_urban rail rail_electric rail_fast ship" speed="22.22" length="0.30" width="3.75" shape="651.83,634.96 651.59,635.14"/>
    <lane id=":3.2_0_2" index="2" disallow="pedestrian tram rail_urban rail rail_electric rail_fast ship" speed="22.22" length="0.30" width="3.75" shape="649.63,631.93 649.38,632.11"/>
  </edge>
  <edge id=":30.29_0" function="internal">
    <lane id=":30.29_0_0" index="0" disallow="pedestrian tram rail_urban rail rail_electric rail_fast ship" speed="13.89" length="0.30" width="3.75" shape="1068.60,730.79,10.47 1068.57,731.09,10.47"/>
  </edge>
  <edge id=":33.32_0" function="internal">
    <lane id=":33.32_0_0" index="0" disallow="pedestrian tram rail_urban rail rail_electric rail_fast ship" speed="16.67" length="0.30" width="3.75" shape="561.30,992.24,9.14 561.52,992.43,9.15"/>
  </edge>
  <edge id=":35.34_0" function="internal">
    <lane id=":35.34_0_0" index="0" disallow="pedestrian tram rail_urban rail rail_electric rail_fast ship" speed="16.67" length="0.30" width="3.75" shape="135.70,774.55,7.20 135.92,774.74,7.20"/>
  </edge>
  <edge id=":37.36_0" function="internal">
    <lane id=":37.36_0_0" index="0" disallow="pedestrian tram rail_urban rail rail_electric rail_fast ship" speed="13.89" length="0.28" width="3.75" shape="875.38,644.51,10.03 875.43,644.23,10.00"/>
  </edge>
  <edge id=":39.38_0" function="internal">
    <lane id=":39.38_0_0" index="0" disallow="pedestrian tram rail_urban rail rail_electric rail_fast ship" speed="22.22" length="0.30" width="3.75" shape="759.48,630.42,9.39 759.76,630.51,9.39"/>
  </edge>
  <edge id=":4_0" function="internal">
    <lane id=":4_0_0" index="0" disallow="pedestrian tram rail_urban rail rail_electric rail_fast ship" speed="18.06" length="24.35" width="3.75" shape="773.64,722.53,20.00 779.37,728.34,20.00 784.58,732.44,20.00 789.22,735.06,20.00 793.21,736.48,20.00"/>
  </edge>
  <edge id=":4_1" function="internal">
    <lane id=":4_1_0" index="0" disallow="pedestrian tram rail_urban rail rail_electric rail_fast ship" speed="22.22" length="25.01" width="3.75" shape="773.64,722.53,20.00 790.21,741.26,20.00"/>
    <lane id=":4_1_1" index="1" disallow="pedestrian tram rail_urban rail rail_electric rail_fast ship" speed="22.22" length="25.01" width="3.75" shape="770.83,725.01,20.00 787.40,743.75,20.00"/>
    <lane id=":4_1_2" index="2" disallow="pedestrian tram rail_urban rail rail_electric rail_fast ship" speed="22.22" length="25.01" width="3.75" shape="768.02,727.49,20.00 784.59,746.23,20.00"/>
  </edge>
  <edge id=":5_0" function="internal">
    <lane id=":5_0_0" index="0" disallow="pedestrian tram rail_urban rail rail_electric rail_fast ship" speed="15.97" length="41.73" width="3.75" shape="1141.20,1161.77,20.00 1132.59,1153.24,19.98 1123.24,1145.00,19.95 1115.05,1138.25,19.93 1109.93,1134.20,19.92"/>
  </edge>
  <edge id=":5_1" function="internal">
    <lane id=":5_1_0" index="0" disallow="pedestrian tram rail_urban rail rail_electric rail_fast ship" speed="22.22" length="41.83" width="3.75" shape="1141.20,1161.77,20.00 1112.90,1130.97,20.00"/>
    <lane id=":5_1_1" index="1" disallow="pedestrian tram rail_urban rail rail_electric rail_fast ship" speed="22.22" length="41.83" width="3.75" shape="1143.96,1159.24,20.00 1115.67,1128.43,20.00"/>
    <lane id=":5_1_2" index="2" disallow="pedestrian tram rail_urban rail rail_electric rail_fast ship" speed="22.22" length="41.83" width="3.75" shape="1146.72,1156.70,20.00 1118.43,1125.89,20.00"/>
  </edge>
  <edge id=":6_0" function="internal">
    <lane id=":6_0_0" index="0" disallow="pedestrian tram rail_urban rail rail_electric rail_fast ship" speed="19.44" length="80.05" width="3.75" shape="615.92,570.16,20.00 564.79,508.56,19.91"/>
  </edge>
  <edge id=":6_1" function="internal">
    <lane id=":6_1_0" index="0" disallow="pedestrian tram rail_urban rail rail_electric rail_fast ship" speed="22.22" length="80.28" width="3.75" shape="615.92,570.16,20.00 567.88,505.73,20.00"/>
    <lane id=":6_1_1" index="1" disallow="pedestrian tram rail_urban rail rail_electric rail_fast ship" speed="22.22" length="80.28" width="3.75" shape="618.90,567.88,20.00 570.91,503.52,20.00"/>
    <lane id=":6_1_2" index="2" disallow="pedestrian tram rail_urban rail rail_electric rail_fast ship" speed="22.22" length="80.28" width="3.75" shape="621.87,565.60,20.00 573.94,501.31,20.00"/>
  </edge>
  <edge id=":7_0" function="internal">
    <lane id=":7_0_0" index="0" disallow="pedestrian tram rail_urban rail rail_electric rail_fast ship" speed="15.97" length="67.27" width="3.75" shape="367.62,894.76,0.00 359.44,901.36,0.00 344.58,913.80,0.00 328.47,927.66,0.00 316.53,938.50"/>
  </edge>
  <edge id=":7_1" function="internal">
    <lane id=":7_1_0" index="0" disallow="pedestrian tram rail_urban rail rail_electric rail_fast ship" speed="22.22" length="66.91" width="3.75" shape="364.41,891.79 316.53,938.50"/>
    <lane id=":7_1_1" index="1" disallow="pedestrian tram rail_urban rail rail_electric rail_fast ship" speed="22.22" length="66.91" width="3.75" shape="361.80,889.10 313.90,935.82"/>
    <lane id=":7_1_2" index="2" disallow="pedestrian tram rail_urban rail rail_electric rail_fast ship" speed="22.22" length="66.91" width="3.75" shape="359.19,886.41 311.28,933.14"/>
  </edge>
  <edge id=":8_0" function="internal">
    <lane id=":8_0_0" index="0" disallow="pedestrian tram rail_urban rail rail_electric rail_fast ship" speed="15.97" length="101.66" width="3.75" shape="377.13,239.56,20.00 323.62,153.12,20.00"/>
  </edge>
  <edge id=":8_1" function="internal">
    <lane id=":8_1_0" index="0" disallow="pedestrian tram rail_urban rail rail_electric rail_fast ship" speed="22.22" length="101.44" width="3.75" shape="380.45,237.16,20.00 323.62,153.12,20.00"/>
    <lane id=":8_1_1" index="1" disallow="pedestrian tram rail_urban rail rail_electric rail_fast ship" speed="22.22" length="101.44" width="3.75" shape="383.55,235.06,20.00 326.73,151.03,20.00"/>
    <lane id=":8_1_2" index="2" disallow="pedestrian tram rail_urban rail rail_electric rail_fast ship" speed="22.22" length="101.44" width="3.75" shape="386.65,232.95,20.00 329.84,148.93,20.00"/>
  </edge>
  <edge id=":8.7_0" function="internal">
    <lane id=":8.7_0_0" index="0" disallow="pedestrian tram rail_urban rail rail_electric rail_fast ship" speed="22.22" length="0.30" width="3.75" shape="640.41,619.78 640.66,619.60"/>
    <lane id=":8.7_0_1" index="1" disallow="pedestrian tram rail_urban rail rail_electric rail_fast ship" speed="22.22" length="0.30" width="3.75" shape="642.62,622.81 642.86,622.63"/>
    <lane id=":8.7_0_2" index="2" disallow="pedestrian tram rail_urban rail rail_electric rail_fast ship" speed="22.22" length="0.30" width="3.75" shape="644.83,625.84 645.07,625.67"/>
  </edge>
  <edge id=":9_0" function="internal">
    <lane id=":9_0_0" index="0" disallow="pedestrian tram rail_urban rail rail_electric rail_fast ship" speed="9.72" length="14.99" width="3.75" shape="483.36,612.36,7.19 487.94,598.09,7.24"/>
  </edge>
  <edge id=":9_1" function="internal">
    <lane id=":9_1_0" index="0" disallow="pedestrian tram rail_urban rail rail_electric rail_fast ship" speed="14.67" length="16.80" width="3.75" shape="483.36,612.36,7.19 485.02,608.69,7.20 487.44,605.03,7.22 490.36,601.78,7.23 493.53,599.32,7.25"/>
  </edge>
  <edge id="-0" from="0.begin" to="0" priority="1" type="driving" shape="1335.71,202.87 1334.66,203.53 1333.58,204.20 1332.46,204.89 1331.31,205.60 1330.12,206.34 1328.90,207.09 1327.64,207.86 1326.35,208.65 1325.03,209.46 1323.68,210.28 1322.29,211.13 1320.87,212.00 1319.42,212.88 1317.93,213.78 1316.42,214.70 1314.87,215.64 1313.30,216.60 1311.69,217.57 1310.05,218.56 1308.38,219.57 1306.68,220.60 1304.96,221.64 1303.20,222.70 1301.41,223.78 1299.59,224.88 1297.75,225.99 1295.88,227.12 1293.97,228.26 1292.05,229.42 1290.09,230.60 1288.10,231.79 1286.09,233.00 1284.05,234.23 1281.99,235.47 1279.89,236.72 1277.78,237.99 1275.63,239.28 1273.46,240.58 1271.27,241.90 1269.05,243.23 1266.80,244.58 1264.53,245.94 1262.24,247.31">
    <lane id="-0_0" index="0" disallow="pedestrian tram rail_urban rail rail_electric rail_fast ship" speed="22.22" length="81.95" width="3.75" shape="1340.66,210.84 1339.61,211.49 1338.51,212.17 1337.39,212.87 1336.23,213.58 1335.03,214.32 1333.80,215.07 1332.54,215.85 1331.25,216.64 1329.92,217.45 1328.56,218.28 1327.17,219.13 1325.75,220.00 1324.29,220.89 1322.80,221.79 1321.29,222.71 1319.74,223.66 1318.16,224.61 1316.55,225.59 1314.90,226.58 1313.23,227.59 1311.53,228.62 1309.80,229.67 1308.04,230.73 1306.25,231.81 1304.43,232.91 1302.59,234.02 1300.71,235.15 1298.81,236.29 1296.88,237.46 1294.92,238.63 1292.93,239.83 1290.92,241.04 1288.88,242.26 1286.81,243.50 1284.72,244.76 1282.60,246.03 1280.46,247.32 1278.28,248.62 1276.09,249.94 1273.87,251.27 1271.62,252.62 1270.50,253.29" type="driving"/>
    <lane id="-0_1" index="1" disallow="pedestrian tram rail_urban rail rail_electric rail_fast ship" speed="22.22" length="81.95" width="3.75" shape="1338.68,207.65 1337.63,208.31 1336.54,208.98 1335.42,209.68 1334.26,210.39 1333.07,211.13 1331.84,211.88 1330.58,212.65 1329.29,213.44 1327.96,214.26 1326.61,215.08 1325.22,215.93 1323.80,216.80 1322.34,217.68 1320.86,218.59 1319.34,219.51 1317.79,220.45 1316.21,221.41 1314.60,222.38 1312.96,223.37 1311.29,224.38 1309.59,225.41 1307.86,226.46 1306.10,227.52 1304.32,228.60 1302.50,229.69 1300.65,230.81 1298.78,231.94 1296.88,233.08 1294.94,234.24 1292.99,235.42 1291.00,236.61 1288.99,237.82 1286.95,239.05 1284.88,240.29 1282.79,241.55 1280.67,242.82 1278.53,244.10 1276.36,245.41 1274.16,246.72 1271.94,248.05 1269.69,249.40 1268.57,250.07" type="driving"/>
    <lane id="-0_2" index="2" disallow="pedestrian tram rail_urban rail rail_electric rail_fast ship" speed="22.22" length="81.95" width="3.75" shape="1336.70,204.47 1335.65,205.12 1334.57,205.79 1333.44,206.49 1332.29,207.20 1331.10,207.93 1329.88,208.68 1328.62,209.46 1327.33,210.25 1326.01,211.06 1324.65,211.88 1323.26,212.73 1321.84,213.60 1320.39,214.48 1318.91,215.38 1317.39,216.30 1315.85,217.24 1314.27,218.20 1312.66,219.17 1311.02,220.17 1309.35,221.18 1307.65,222.20 1305.92,223.25 1304.17,224.31 1302.38,225.39 1300.56,226.48 1298.72,227.59 1296.84,228.72 1294.94,229.87 1293.01,231.03 1291.05,232.21 1289.07,233.40 1287.06,234.61 1285.02,235.83 1282.95,237.07 1280.86,238.33 1278.74,239.60 1276.60,240.89 1274.43,242.19 1272.23,243.51 1270.01,244.84 1267.77,246.18 1266.64,246.86" type="driving"/>
  </edge>
  <edge id="-1" from="0" to="14" priority="1" type="driving" shape="1262.24,247.31 1260.99,248.06 1259.74,248.81 1258.48,249.56 1257.22,250.32 1255.95,251.08 1254.67,251.84 1253.38,252.61 1252.09,253.39 1250.79,254.16 1249.49,254.95 1248.17,255.73 1246.86,256.52 1245.53,257.31 1244.20,258.11 1242.86,258.91 1241.52,259.72 1240.17,260.52 1238.81,261.34 1237.45,262.15 1236.08,262.97 1234.70,263.80 1233.32,264.62 1231.93,265.45 1230.54,266.29 1229.14,267.12 1227.73,267.97 1226.32,268.81 1224.90,269.66 1223.48,270.51 1222.05,271.37 1220.61,272.23 1219.17,273.09 1217.72,273.95 1216.27,274.82 1214.81,275.70 1213.35,276.57 1211.88,277.45 1210.40,278.33 1208.92,279.22 1207.44,280.11 1205.94,281.00 1204.45,281.90 1202.94,282.80 1201.44,283.70 1199.92,284.61 1198.41,285.51 1196.88,286.43 1195.35,287.34 1193.82,288.26 1192.28,289.18 1190.74,290.10 1189.19,291.03 1187.64,291.96 1186.08,292.89 1184.52,293.83 1182.95,294.77 1181.37,295.71 1179.80,296.66 1178.22,297.60 1176.63,298.55 1175.04,299.51 1173.44,300.46 1171.84,301.42 1170.23,302.38 1168.63,303.35 1167.01,304.32 1165.39,305.29 1163.77,306.26 1162.14,307.23 1160.51,308.21 1158.88,309.19 1157.24,310.18 1155.59,311.16 1153.94,312.15 1152.29,313.14 1150.64,314.13 1148.98,315.13 1147.31,316.13 1145.64,317.13 1143.97,318.13 1142.30,319.14 1140.62,320.15 1138.93,321.16 1137.25,322.17 1135.56,323.18 1133.86,324.20 1132.16,325.22 1130.46,326.24 1128.76,327.27 1127.05,328.29 1125.34,329.32 1123.62,330.35 1121.90,331.39 1120.18,332.42 1118.46,333.46 1116.73,334.50 1115.00,335.54 1113.26,336.58 1111.52,337.63 1109.78,338.67 1108.04,339.72 1106.29,340.77 1104.54,341.83 1102.79,342.88 1101.03,343.94 1099.27,345.00 1097.51,346.06 1095.75,347.12 1093.98,348.19 1092.21,349.25 1090.44,350.32 1088.66,351.39 1086.88,352.46 1085.10,353.53 1083.32,354.61 1081.54,355.69 1079.75,356.76 1077.96,357.84 1076.17,358.92 1074.37,360.01 1072.58,361.09 1070.78,362.18 1068.98,363.26 1067.17,364.35 1065.37,365.44 1063.56,366.54 1061.75,367.63 1059.94,368.72 1058.13,369.82 1056.31,370.92 1054.49,372.02 1052.68,373.12 1050.85,374.22 1049.03,375.32 1047.21,376.42 1045.38,377.53 1043.55,378.64 1041.73,379.74 1039.90,380.85 1038.06,381.96 1036.23,383.07 1034.39,384.18 1032.56,385.30 1030.72,386.41 1028.88,387.53 1027.04,388.64 1025.20,389.76 1023.36,390.88 1021.51,392.00 1019.67,393.12 1017.82,394.24 1015.98,395.36 1014.13,396.48 1012.28,397.61 1010.43,398.73 1008.58,399.86 1006.73,400.98 1004.87,402.11 1003.02,403.24 1001.17,404.37 999.31,405.49 997.46,406.62 995.60,407.75 993.75,408.89 991.89,410.02 990.03,411.15 988.17,412.28 986.32,413.41 984.46,414.55 982.60,415.68 980.74,416.82 978.88,417.95 977.02,419.09 975.16,420.22 973.30,421.36 971.44,422.50 969.58,423.63 967.72,424.77 965.86,425.91 964.00,427.05 962.14,428.19 960.28,429.33 958.42,430.46 956.56,431.60 954.70,432.74 952.85,433.88 950.99,435.02 949.13,436.16 947.27,437.30 945.41,438.44 943.56,439.58 941.70,440.72 939.85,441.86 937.99,443.00 936.14,444.14 934.29,445.28 932.43,446.42 930.58,447.56 928.73,448.70 926.88,449.84 925.03,450.98 923.18,452.12 921.34,453.26 919.49,454.39 917.64,455.53 915.80,456.67 913.96,457.81 912.12,458.95 910.27,460.08 908.44,461.22 906.60,462.36 904.76,463.49 902.93,464.63 901.09,465.76 899.26,466.90 897.43,468.03 895.60,469.17 893.77,470.30 891.95,471.43 890.12,472.57 888.30,473.70 886.48,474.83 884.66,475.96 882.84,477.09 881.02,478.22 879.21,479.35 877.40,480.47 875.59,481.60 873.78,482.73 871.98,483.85 870.17,484.98 868.37,486.10 866.57,487.22 864.77,488.34 862.98,489.47 861.19,490.59 859.40,491.70 857.61,492.82 855.82,493.94 854.04,495.06 852.26,496.17 850.48,497.29 848.70,498.40 846.93,499.51 845.16,500.62 843.39,501.73 841.63,502.84 839.87,503.95 838.11,505.06 836.35,506.16 834.60,507.27 832.85,508.37 831.10,509.47 829.35,510.57 827.61,511.67 825.87,512.77 824.14,513.86 822.41,514.96 820.68,516.05 818.95,517.14 817.23,518.23 815.51,519.32 813.79,520.41 812.08,521.50 810.37,522.58 808.67,523.66 806.96,524.75 805.26,525.83 803.57,526.90 801.88,527.98 800.19,529.06 798.51,530.13">