<?xml version='1.0' encoding='UTF-8'?>
<!-- generated on 2022-09-02 17:03:37 by Eclipse SUMO netconvert Version 1.13.0
<configuration xmlns:xsi="http://www.w3.org/2001/XMLSchema-instance" xsi:noNamespaceSchemaLocation="http://sumo.dlr.de/xsd/netconvertConfiguration.xsd">

    <input>
        <opendrive-files value="map\classification\18\74554674\74554674.xodr"/>
    </input>

    <output>
        <output-file value="C:\Users\LinGe\AppData\Local\Temp\tmppr_aaqr1\74554674.net.xml"/>
    </output>

    <processing>
        <geometry.max-grade.fix value="false"/>
    </processing>

    <tls_building>
        <tls.left-green.time value="0"/>
    </tls_building>

    <junctions>
        <rectangular-lane-cut value="true"/>
    </junctions>

    <report>
        <aggregate-warnings value="5"/>
    </report>

</configuration>
-->
<net xmlns:xsi="http://www.w3.org/2001/XMLSchema-instance" version="1.9" junctionCornerDetail="5" rectangularLaneCut="true" limitTurnSpeed="5.50" xsi:noNamespaceSchemaLocation="http://sumo.dlr.de/xsd/net_file.xsd">
  <location netOffset="34.15,101.26" convBoundary="0.00,0.00,1135.33,1342.95" origBoundary="-34.15,-101.26,1101.18,1241.70" projParameter="!"/>
  <type id="bidirectional" priority="1" speed="1.39" disallow="pedestrian tram rail_urban rail rail_electric rail_fast ship" width="3.65"/>
  <type id="border" priority="0" speed="1.39" disallow="all" discard="1" width="0.10"/>
  <type id="driving" priority="1" speed="13.89" disallow="pedestrian tram rail_urban rail rail_electric rail_fast ship" width="3.65"/>
  <type id="entry" priority="1" speed="22.22" disallow="pedestrian tram rail_urban rail rail_electric rail_fast ship" width="3.65"/>
  <type id="exit" priority="1" speed="22.22" disallow="pedestrian tram rail_urban rail rail_electric rail_fast ship" width="3.65"/>
  <type id="median" priority="0" speed="1.39" disallow="all" discard="1" width="0.10"/>
  <type id="mwyEntry" priority="1" speed="22.22" allow="private emergency authority army vip passenger hov taxi bus coach delivery truck trailer motorcycle evehicle custom1 custom2" width="3.65"/>
  <type id="mwyExit" priority="1" speed="22.22" allow="private emergency authority army vip passenger hov taxi bus coach delivery truck trailer motorcycle evehicle custom1 custom2" width="3.65"/>
  <type id="none" priority="0" speed="1.39" disallow="all" discard="1" width="1.00"/>
  <type id="offRamp" priority="1" speed="22.22" allow="private emergency authority army vip passenger hov taxi bus coach delivery truck trailer motorcycle evehicle custom1 custom2" width="3.65"/>
  <type id="onRamp" priority="1" speed="22.22" allow="private emergency authority army vip passenger hov taxi bus coach delivery truck trailer motorcycle evehicle custom1 custom2" width="3.65"/>
  <type id="parking" priority="1" speed="1.39" disallow="pedestrian tram rail_urban rail rail_electric rail_fast ship" width="2.50"/>
  <type id="rail" priority="3" speed="33.33" allow="rail_urban rail rail_electric rail_fast" width="3.65"/>
  <type id="restricted" priority="0" speed="13.89" disallow="all" width="3.65"/>
  <type id="roadWorks" priority="0" speed="1.39" allow="authority" width="3.65"/>
  <type id="shoulder" priority="0" speed="1.39" disallow="all" discard="1" width="1.00"/>
  <type id="special1" priority="1" speed="22.22" allow="custom1" discard="1" width="3.65"/>
  <type id="special2" priority="1" speed="22.22" allow="custom2" discard="1" width="3.65"/>
  <type id="special3" priority="1" speed="22.22" allow="custom1 custom2" discard="1" width="3.65"/>
  <type id="stop" priority="1" speed="13.89" disallow="pedestrian tram rail_urban rail rail_electric rail_fast ship" width="3.65"/>
  <type id="tram" priority="2" speed="13.89" allow="tram" width="3.65"/>
  <edge id=":0_0" function="internal">
    <lane id=":0_0_0" index="0" disallow="pedestrian tram rail_urban rail rail_electric rail_fast ship" speed="19.44" length="56.67" width="3.75" shape="1046.94,292.18 1036.43,302.14 1024.09,314.68 1013.25,326.09 1007.28,332.64"/>
  </edge>
  <edge id=":0_1" function="internal">
    <lane id=":0_1_0" index="0" disallow="pedestrian tram rail_urban rail rail_electric rail_fast ship" speed="22.22" length="56.82" width="3.75" shape="1046.94,292.18 1004.19,329.61"/>
    <lane id=":0_1_1" index="1" disallow="pedestrian tram rail_urban rail rail_electric rail_fast ship" speed="22.22" length="56.82" width="3.75" shape="1044.47,289.36 1001.72,326.79"/>
    <lane id=":0_1_2" index="2" disallow="pedestrian tram rail_urban rail rail_electric rail_fast ship" speed="22.22" length="56.82" width="3.75" shape="1042.00,286.54 999.25,323.97"/>
  </edge>
  <edge id=":1_0" function="internal">
    <lane id=":1_0_0" index="0" disallow="pedestrian tram rail_urban rail rail_electric rail_fast ship" speed="16.83" length="21.47" width="3.75" shape="710.63,552.33 715.78,547.46,0.03 719.29,542.96,0.06 721.47,538.82,0.08 722.59,534.98,0.10"/>
  </edge>
  <edge id=":1_1" function="internal">
    <lane id=":1_1_0" index="0" disallow="pedestrian tram rail_urban rail rail_electric rail_fast ship" speed="22.22" length="22.20" width="3.75" shape="710.63,552.33 727.63,538.06"/>
    <lane id=":1_1_1" index="1" disallow="pedestrian tram rail_urban rail rail_electric rail_fast ship" speed="22.22" length="22.20" width="3.75" shape="713.04,555.21 730.05,540.93"/>
    <lane id=":1_1_2" index="2" disallow="pedestrian tram rail_urban rail rail_electric rail_fast ship" speed="22.22" length="22.20" width="3.75" shape="715.45,558.08 732.46,543.80"/>
  </edge>
  <edge id=":10_0" function="internal">
    <lane id=":10_0_0" index="0" disallow="pedestrian tram rail_urban rail rail_electric rail_fast ship" speed="18.06" length="22.90" width="3.75" shape="194.18,272.32,20.00 193.92,268.17,20.00 193.07,263.19,20.00 191.09,257.40,20.00 187.40,250.79,20.00"/>
  </edge>
  <edge id=":10_1" function="internal">
    <lane id=":10_1_0" index="0" disallow="pedestrian tram rail_urban rail rail_electric rail_fast ship" speed="22.22" length="21.38" width="3.75" shape="199.32,268.53,20.00 187.40,250.79,20.00"/>
    <lane id=":10_1_1" index="1" disallow="pedestrian tram rail_urban rail rail_electric rail_fast ship" speed="22.22" length="21.38" width="3.75" shape="202.44,266.44,20.00 190.52,248.70,20.00"/>
    <lane id=":10_1_2" index="2" disallow="pedestrian tram rail_urban rail rail_electric rail_fast ship" speed="22.22" length="21.38" width="3.75" shape="205.55,264.35,20.00 193.63,246.61,20.00"/>
  </edge>
  <edge id=":11_0" function="internal">
    <lane id=":11_0_0" index="0" disallow="pedestrian tram rail_urban rail rail_electric rail_fast ship" speed="16.67" length="66.73" width="3.75" shape="806.90,793.55,12.37 798.47,859.75,12.40"/>
  </edge>
  <edge id=":11_1" function="internal">
    <lane id=":11_1_0" index="0" disallow="pedestrian tram rail_urban rail rail_electric rail_fast ship" speed="18.06" length="66.47" width="3.75" shape="802.95,793.43,12.37 798.47,859.75,12.40"/>
  </edge>
  <edge id=":11.10_0" function="internal">
    <lane id=":11.10_0_0" index="0" disallow="pedestrian tram rail_urban rail rail_electric rail_fast ship" speed="22.22" length="0.30" width="3.75" shape="491.00,641.11,20.00 491.18,641.34,20.00"/>
    <lane id=":11.10_0_1" index="1" disallow="pedestrian tram rail_urban rail rail_electric rail_fast ship" speed="22.22" length="0.30" width="3.75" shape="488.08,643.47,20.00 488.27,643.70,20.00"/>
    <lane id=":11.10_0_2" index="2" disallow="pedestrian tram rail_urban rail rail_electric rail_fast ship" speed="22.22" length="0.30" width="3.75" shape="485.16,645.82,20.00 485.35,646.06,20.00"/>
  </edge>
  <edge id=":15.14_0" function="internal">
    <lane id=":15.14_0_0" index="0" disallow="pedestrian tram rail_urban rail rail_electric rail_fast ship" speed="22.22" length="0.30" width="3.75" shape="473.49,655.64,20.00 473.30,655.40,20.00"/>
    <lane id=":15.14_0_1" index="1" disallow="pedestrian tram rail_urban rail rail_electric rail_fast ship" speed="22.22" length="0.30" width="3.75" shape="476.40,653.28,20.00 476.21,653.05,20.00"/>
    <lane id=":15.14_0_2" index="2" disallow="pedestrian tram rail_urban rail rail_electric rail_fast ship" speed="22.22" length="0.30" width="3.75" shape="479.32,650.92,20.00 479.13,650.69,20.00"/>
  </edge>
  <edge id=":19.18_0" function="internal">
    <lane id=":19.18_0_0" index="0" disallow="pedestrian tram rail_urban rail rail_electric rail_fast ship" speed="22.22" length="0.30" width="3.75" shape="476.17,884.95,8.48 475.87,884.90,8.47"/>
  </edge>
  <edge id=":2_0" function="internal">
    <lane id=":2_0_0" index="0" disallow="pedestrian tram rail_urban rail rail_electric rail_fast ship" speed="18.06" length="52.44" width="3.75" shape="135.07,131.55,20.00 143.19,142.72,19.95 153.21,155.39,19.90 162.30,166.41,19.85 167.64,172.63,19.82"/>
  </edge>
  <edge id=":2_1" function="internal">
    <lane id=":2_1_0" index="0" disallow="pedestrian tram rail_urban rail rail_electric rail_fast ship" speed="22.22" length="52.56" width="3.75" shape="135.07,131.55,20.00 164.22,175.28,20.00"/>
    <lane id=":2_1_1" index="1" disallow="pedestrian tram rail_urban rail rail_electric rail_fast ship" speed="22.22" length="52.56" width="3.75" shape="131.95,133.63,20.00 161.10,177.36,20.00"/>
    <lane id=":2_1_2" index="2" disallow="pedestrian tram rail_urban rail rail_electric rail_fast ship" speed="22.22" length="52.56" width="3.75" shape="128.83,135.71,20.00 157.99,179.44,20.00"/>
  </edge>
  <edge id=":2.1_0" function="internal">
    <lane id=":2.1_0_0" index="0" disallow="pedestrian tram rail_urban rail rail_electric rail_fast ship" speed="22.22" length="0.30" width="3.75" shape="542.91,715.38 542.66,715.56"/>
    <lane id=":2.1_0_1" index="1" disallow="pedestrian tram rail_urban rail rail_electric rail_fast ship" speed="22.22" length="0.30" width="3.75" shape="540.70,712.35 540.46,712.52"/>
    <lane id=":2.1_0_2" index="2" disallow="pedestrian tram rail_urban rail rail_electric rail_fast ship" speed="22.22" length="0.30" width="3.75" shape="538.50,709.31 538.26,709.49"/>
  </edge>
  <edge id=":21.20_0" function="internal">
    <lane id=":21.20_0_0" index="0" disallow="pedestrian tram rail_urban rail rail_electric rail_fast ship" speed="13.89" length="0.30" width="3.75" shape="444.71,371.47,11.78 445.00,371.54,11.77"/>
  </edge>
  <edge id=":25.24_0" function="internal">
    <lane id=":25.24_0_0" index="0" disallow="pedestrian tram rail_urban rail rail_electric rail_fast ship" speed="16.67" length="0.30" width="3.75" shape="797.64,871.00,12.62 797.62,871.30,12.62"/>
  </edge>
  <edge id=":27.26_0" function="internal">
    <lane id=":27.26_0_0" index="0" disallow="pedestrian tram rail_urban rail rail_electric rail_fast ship" speed="16.67" length="0.29" width="3.75" shape="569.14,432.36,10.02 568.85,432.37,10.04"/>
  </edge>
  <edge id=":29.28_0" function="internal">
    <lane id=":29.28_0_0" index="0" disallow="pedestrian tram rail_urban rail rail_electric rail_fast ship" speed="13.89" length="0.30" width="3.75" shape="77.80,1283.69,14.24 77.54,1283.54,14.24"/>
  </edge>
  <edge id=":3_0" function="internal">
    <lane id=":3_0_0" index="0" disallow="pedestrian tram rail_urban rail rail_electric rail_fast ship" speed="22.22" length="76.30" width="3.75" shape="801.34,1018.40,20.00 788.93,1006.00,20.00 771.36,989.14,20.00 754.99,973.73,20.00 746.17,965.70,20.00"/>
  </edge>
  <edge id=":3_1" function="internal">
    <lane id=":3_1_0" index="0" disallow="pedestrian tram rail_urban rail rail_electric rail_fast ship" speed="22.22" length="76.47" width="3.75" shape="801.34,1018.40,20.00 749.06,962.57,20.00"/>
    <lane id=":3_1_1" index="1" disallow="pedestrian tram rail_urban rail rail_electric rail_fast ship" speed="22.22" length="76.47" width="3.75" shape="804.07,1015.83,20.00 751.80,960.01,20.00"/>
    <lane id=":3_1_2" index="2" disallow="pedestrian tram rail_urban rail rail_electric rail_fast ship" speed="22.22" length="76.47" width="3.75" shape="806.80,1013.27,20.00 754.55,957.45,20.00"/>
  </edge>
  <edge id=":31.30_0" function="internal">
    <lane id=":31.30_0_0" index="0" disallow="pedestrian tram rail_urban rail rail_electric rail_fast ship" speed="19.44" length="0.30" width="3.75" shape="319.87,151.28,13.29 320.15,151.17,13.29"/>
  </edge>
  <edge id=":4_0" function="internal">
    <lane id=":4_0_0" index="0" disallow="pedestrian tram rail_urban rail rail_electric rail_fast ship" speed="22.22" length="57.43" width="3.75" shape="268.31,890.62,0.00 260.00,894.00,0.00 245.34,900.40,0.00 229.10,907.86,0.00 216.05,914.39"/>
  </edge>
  <edge id=":4_1" function="internal">
    <lane id=":4_1_0" index="0" disallow="pedestrian tram rail_urban rail rail_electric rail_fast ship" speed="22.22" length="56.95" width="3.75" shape="265.91,886.80 216.05,914.39"/>
    <lane id=":4_1_1" index="1" disallow="pedestrian tram rail_urban rail rail_electric rail_fast ship" speed="22.22" length="56.95" width="3.75" shape="264.08,883.53 214.25,911.10"/>
    <lane id=":4_1_2" index="2" disallow="pedestrian tram rail_urban rail rail_electric rail_fast ship" speed="22.22" length="56.95" width="3.75" shape="262.25,880.25 212.44,907.81"/>
  </edge>
  <edge id=":5_0" function="internal">
    <lane id=":5_0_0" index="0" disallow="pedestrian tram rail_urban rail rail_electric rail_fast ship" speed="22.22" length="2.99" width="3.75" shape="657.72,916.69,14.35 654.86,915.81,14.23"/>
  </edge>
  <edge id=":5_1" function="internal">
    <lane id=":5_1_0" index="0" disallow="pedestrian tram rail_urban rail rail_electric rail_fast ship" speed="20.83" length="3.00" width="3.75" shape="657.72,916.69,14.35 654.85,915.80,14.29"/>
  </edge>
  <edge id=":5.4_0" function="internal">
    <lane id=":5.4_0_0" index="0" disallow="pedestrian tram rail_urban rail rail_electric rail_fast ship" speed="22.22" length="0.30" width="3.75" shape="529.29,697.15 529.53,696.98"/>
    <lane id=":5.4_0_1" index="1" disallow="pedestrian tram rail_urban rail rail_electric rail_fast ship" speed="22.22" length="0.30" width="3.75" shape="531.49,700.19 531.73,700.01"/>
    <lane id=":5.4_0_2" index="2" disallow="pedestrian tram rail_urban rail rail_electric rail_fast ship" speed="22.22" length="0.30" width="3.75" shape="533.70,703.22 533.94,703.04"/>
  </edge>
  <edge id=":6_0" function="internal">
    <lane id=":6_0_0" index="0" disallow="pedestrian tram rail_urban rail rail_electric rail_fast ship" speed="18.06" length="62.81" width="3.75" shape="933.70,355.17,0.19 941.72,349.51,0.16 956.09,338.92,0.10 971.78,326.98,0.05 983.77,317.27"/>
  </edge>
  <edge id=":6_1" function="internal">
    <lane id=":6_1_0" index="0" disallow="pedestrian tram rail_urban rail rail_electric rail_fast ship" speed="22.22" length="62.42" width="3.75" shape="936.77,358.33 983.77,317.27"/>
    <lane id=":6_1_1" index="1" disallow="pedestrian tram rail_urban rail rail_electric rail_fast ship" speed="22.22" length="62.42" width="3.75" shape="939.23,361.15 986.24,320.09"/>
    <lane id=":6_1_2" index="2" disallow="pedestrian tram rail_urban rail rail_electric rail_fast ship" speed="22.22" length="62.42" width="3.75" shape="941.69,363.98 988.71,322.92"/>
  </edge>
  <edge id=":7_0" function="internal">
    <lane id=":7_0_0" index="0" disallow="pedestrian tram rail_urban rail rail_electric rail_fast ship" speed="19.44" length="153.29" width="3.75" shape="886.19,1069.48,20.00 988.61,1183.53,20.00"/>
  </edge>
  <edge id=":7_1" function="internal">
    <lane id=":7_1_0" index="0" disallow="pedestrian tram rail_urban rail rail_electric rail_fast ship" speed="22.22" length="153.13" width="3.75" shape="883.35,1072.33,20.00 988.61,1183.53,20.00"/>
    <lane id=":7_1_1" index="1" disallow="pedestrian tram rail_urban rail rail_electric rail_fast ship" speed="22.22" length="153.13" width="3.75" shape="880.62,1074.90,20.00 985.89,1186.11,20.00"/>
    <lane id=":7_1_2" index="2" disallow="pedestrian tram rail_urban rail rail_electric rail_fast ship" speed="22.22" length="153.13" width="3.75" shape="877.89,1077.48,20.00 983.17,1188.69,20.00"/>
  </edge>
  <edge id=":8_0" function="internal">
    <lane id=":8_0_0" index="0" disallow="pedestrian tram rail_urban rail rail_electric rail_fast ship" speed="16.67" length="3.00" width="3.75" shape="853.24,618.73,7.88 852.24,621.56,7.95"/>
  </edge>
  <edge id=":8_1" function="internal">
    <lane id=":8_1_0" index="0" disallow="pedestrian tram rail_urban rail rail_electric rail_fast ship" speed="15.28" length="3.00" width="3.75" shape="853.24,618.73,7.88 852.24,621.56,7.91"/>
  </edge>
  <edge id=":9_0" function="internal">
    <lane id=":9_0_0" index="0" disallow="pedestrian tram rail_urban rail rail_electric rail_fast ship" speed="19.44" length="25.94" width="3.75" shape="420.20,536.63,19.84 420.69,541.01,19.87 422.11,546.55,19.91 424.91,553.09,19.95 429.53,560.47,20.00"/>
  </edge>
  <edge id=":9_1" function="internal">
    <lane id=":9_1_0" index="0" disallow="pedestrian tram rail_urban rail rail_electric rail_fast ship" speed="22.22" length="24.51" width="3.75" shape="415.11,540.67,20.00 429.53,560.47,20.00"/>
    <lane id=":9_1_1" index="1" disallow="pedestrian tram rail_urban rail rail_electric rail_fast ship" speed="22.22" length="24.51" width="3.75" shape="412.07,542.87,20.00 426.50,562.68,20.00"/>
    <lane id=":9_1_2" index="2" disallow="pedestrian tram rail_urban rail rail_electric rail_fast ship" speed="22.22" length="24.51" width="3.75" shape="409.03,545.07,20.00 423.47,564.90,20.00"/>
  </edge>
  <edge id="-0" from="0.begin" to="0" priority="1" type="driving" shape="1135.33,202.87 1134.47,203.60 1133.59,204.35 1132.68,205.12 1131.75,205.91 1130.80,206.72 1129.83,207.55 1128.83,208.40 1127.81,209.27 1126.77,210.16 1125.71,211.07 1124.63,212.00 1123.52,212.95 1122.39,213.92 1121.25,214.91 1120.08,215.92 1118.88,216.95 1117.67,217.99 1116.44,219.06 1115.19,220.14 1113.91,221.25 1112.62,222.37 1111.30,223.51 1109.97,224.66 1108.62,225.84 1107.24,227.03 1105.85,228.24 1104.43,229.47 1103.00,230.72 1101.55,231.98 1100.08,233.26 1098.59,234.56 1097.08,235.87 1095.55,237.20 1094.01,238.55 1092.44,239.92 1090.86,241.30 1089.26,242.69 1087.65,244.10 1086.01,245.53 1084.36,246.98 1082.69,248.44 1081.00,249.91 1079.29,251.40 1077.57,252.91 1075.83,254.43 1074.08,255.96 1072.31,257.51 1070.52,259.08 1068.71,260.66 1066.89,262.25 1065.06,263.86 1063.20,265.48 1061.34,267.11 1059.45,268.76 1057.55,270.42 1055.64,272.10 1053.71,273.79 1051.76,275.49 1049.81,277.21 1047.83,278.94 1045.84,280.68 1043.84,282.43 1041.82,284.20 1039.79,285.98 1037.75,287.77">
    <lane id="-0_0" index="0" disallow="pedestrian tram rail_urban rail rail_electric rail_fast ship" speed="22.22" length="125.24" width="3.75" shape="1141.38,210.03 1140.53,210.76 1139.65,211.50 1138.75,212.26 1137.83,213.05 1136.88,213.85 1135.91,214.68 1134.92,215.52 1133.91,216.39 1132.87,217.28 1131.82,218.19 1130.74,219.11 1129.63,220.06 1128.51,221.03 1127.37,222.01 1126.20,223.02 1125.01,224.04 1123.80,225.09 1122.57,226.15 1121.32,227.23 1120.05,228.33 1118.76,229.45 1117.45,230.59 1116.11,231.75 1114.76,232.92 1113.39,234.11 1112.00,235.32 1110.59,236.55 1109.15,237.79 1107.70,239.05 1106.24,240.33 1104.75,241.63 1103.24,242.94 1101.71,244.27 1100.17,245.62 1098.61,246.98 1097.03,248.36 1095.43,249.76 1093.81,251.17 1092.18,252.59 1090.52,254.04 1088.85,255.50 1087.17,256.97 1085.46,258.46 1083.74,259.96 1082.00,261.48 1080.25,263.02 1078.48,264.57 1076.69,266.13 1074.89,267.71 1073.07,269.30 1071.23,270.91 1069.38,272.53 1067.51,274.17 1065.63,275.82 1063.73,277.48 1061.81,279.15 1059.89,280.84 1057.94,282.55 1055.98,284.26 1054.01,285.99 1052.02,287.73 1050.02,289.48 1048.00,291.25 1046.94,292.18" type="driving"/>
    <lane id="-0_1" index="1" disallow="pedestrian tram rail_urban rail rail_electric rail_fast ship" speed="22.22" length="125.24" width="3.75" shape="1138.96,207.17 1138.10,207.89 1137.22,208.64 1136.32,209.40 1135.40,210.19 1134.45,211.00 1133.48,211.82 1132.49,212.67 1131.47,213.54 1130.43,214.43 1129.37,215.34 1128.29,216.27 1127.19,217.22 1126.06,218.18 1124.92,219.17 1123.75,220.18 1122.56,221.21 1121.35,222.25 1120.12,223.31 1118.87,224.40 1117.59,225.50 1116.30,226.62 1114.99,227.76 1113.66,228.91 1112.30,230.09 1110.93,231.28 1109.54,232.49 1108.12,233.72 1106.69,234.96 1105.24,236.23 1103.77,237.50 1102.28,238.80 1100.78,240.11 1099.25,241.44 1097.71,242.79 1096.14,244.15 1094.56,245.53 1092.96,246.93 1091.34,248.34 1089.71,249.77 1088.06,251.21 1086.39,252.67 1084.70,254.15 1083.00,255.64 1081.27,257.14 1079.54,258.66 1077.78,260.20 1076.01,261.75 1074.22,263.31 1072.42,264.89 1070.60,266.48 1068.76,268.09 1066.91,269.71 1065.04,271.34 1063.16,272.99 1061.26,274.66 1059.34,276.33 1057.41,278.02 1055.47,279.72 1053.51,281.44 1051.54,283.17 1049.55,284.91 1047.55,286.66 1045.53,288.43 1044.47,289.36" type="driving"/>
    <lane id="-0_2" index="2" disallow="pedestrian tram rail_urban rail rail_electric rail_fast ship" speed="22.22" length="125.24" width="3.75" shape="1136.54,204.31 1135.68,205.03 1134.80,205.78 1133.90,206.55 1132.97,207.33 1132.02,208.14 1131.05,208.97 1130.05,209.82 1129.03,210.69 1127.99,211.58 1126.93,212.49 1125.85,213.42 1124.74,214.37 1123.62,215.34 1122.47,216.33 1121.30,217.34 1120.11,218.37 1118.90,219.41 1117.67,220.48 1116.41,221.56 1115.14,222.66 1113.85,223.78 1112.53,224.92 1111.20,226.08 1109.84,227.26 1108.47,228.45 1107.08,229.66 1105.66,230.89 1104.23,232.13 1102.78,233.40 1101.31,234.68 1099.82,235.97 1098.31,237.29 1096.79,238.62 1095.24,239.97 1093.68,241.33 1092.10,242.71 1090.50,244.10 1088.88,245.52 1087.24,246.94 1085.59,248.39 1083.92,249.85 1082.23,251.32 1080.53,252.81 1078.81,254.32 1077.07,255.84 1075.31,257.37 1073.54,258.92 1071.75,260.49 1069.95,262.07 1068.13,263.66 1066.29,265.27 1064.44,266.89 1062.57,268.52 1060.69,270.17 1058.79,271.84 1056.87,273.51 1054.94,275.20 1053.00,276.90 1051.04,278.62 1049.07,280.35 1047.08,282.09 1045.08,283.84 1043.06,285.61 1042.00,286.54" type="driving"/>
  </edge>
  <edge id="-1" from="0" to="2.1" priority="1" type="driving" shape="1037.75,287.77 1036.46,288.90 1035.16,290.04 1033.86,291.18 1032.55,292.32 1031.24,293.47 1029.92,294.62 1028.60,295.78 1027.27,296.95 1025.94,298.11 1024.60,299.29 1023.26,300.46 1021.91,301.64 1020.55,302.83 1019.20,304.02 1017.83,305.21 1016.46,306.41 1015.09,307.61 1013.71,308.82 1012.33,310.03 1010.94,311.24 1009.55,312.46 1008.16,313.69 1006.75,314.91 1005.35,316.14 1003.94,317.38 1002.52,318.62 1001.10,319.86 999.68,321.10 998.25,322.35 996.82,323.61 995.38,324.87 993.94,326.13 992.49,327.39 991.04,328.66 989.59,329.93 988.13,331.21 986.67,332.49 985.20,333.77 983.73,335.05 982.26,336.34 980.78,337.64 979.30,338.93 977.81,340.23 976.32,341.53 974.83,342.84 973.33,344.15 971.83,345.46 970.32,346.77 968.81,348.09 967.30,349.41 965.78,350.74 964.26,352.06 962.74,353.39 961.21,354.73 959.68,356.06 958.15,357.40 956.61,358.74 955.07,360.09 953.53,361.44 951.98,362.79 950.43,364.14 948.87,365.49 947.32,366.85 945.76,368.21 944.19,369.57 942.63,370.94 941.06,372.31 939.49,373.68 937.91,375.05 936.33,376.42 934.75,377.80 933.17,379.18 931.58,380.56 929.99,381.95 928.40,383.33 926.80,384.72 925.21,386.11 923.61,387.50 922.00,388.90 920.40,390.29 918.79,391.69 917.18,393.09 915.57,394.49 913.95,395.90 912.33,397.30 910.71,398.71 909.09,400.12 907.46,401.53 905.84,402.95 904.21,404.36 902.58,405.78 900.94,407.19 899.31,408.61 897.67,410.03 896.03,411.46 894.39,412.88 892.75,414.30 891.10,415.73 889.45,417.16 887.80,418.59 886.15,420.02 884.50,421.45 882.85,422.88 881.19,424.32 879.53,425.75 877.87,427.19 876.21,428.63 874.55,430.06 872.88,431.50 871.22,432.94 869.55,434.38 867.88,435.83 866.21,437.27 864.54,438.71 862.87,440.16 861.19,441.60 859.52,443.05 857.84,444.50 856.17,445.94 854.49,447.39 852.81,448.84 851.13,450.29 849.45,451.74 847.76,453.19 846.08,454.64 844.39,456.09 842.71,457.54 841.02,458.99 839.34,460.44 837.65,461.89 835.96,463.35 834.27,464.80 832.58,466.25 830.89,467.70 829.20,469.16 827.51,470.61 825.82,472.06 824.12,473.52 822.43,474.97 820.74,476.42 819.04,477.87 817.35,479.33 815.66,480.78 813.96,482.23 812.27,483.68 810.57,485.13 808.88,486.59 807.18,488.04 805.49,489.49 803.79,490.94 802.10,492.39 800.40,493.83 798.71,495.28 797.01,496.73 795.32,498.18 793.62,499.62 791.93,501.07 790.23,502.52 788.54,503.96 786.85,505.40 785.15,506.85 783.46,508.29 781.77,509.73 780.07,511.17 778.38,512.61 776.69,514.05 775.00,515.48 773.31,516.92 771.62,518.35 769.94,519.79 768.25,521.22 766.56,522.65 764.88,524.08 763.19,525.51 761.51,526.94 759.82,528.36 758.14,529.79 756.46,531.21 754.78,532.63 753.10,534.06 751.42,535.47 749.74,536.89 748.07,538.31 746.39,539.72 744.72,541.13 743.05,542.55 741.38,543.95 739.71,545.36 738.04,546.77 736.37,548.17 734.71,549.57 733.04,550.97 731.38,552.37 729.72,553.77 728.06,555.16 726.40,556.55 724.75,557.94 723.09,559.33 721.44,560.72 719.79,562.10 718.14,563.48 716.49,564.86 714.85,566.24 713.21,567.61 711.56,568.98 709.92,570.35 708.29,571.72 706.65,573.08 705.02,574.45 703.39,575.81 701.76,577.16 700.13,578.52 698.51,579.87 696.89,581.22 695.27,582.57 693.65,583.91 692.04,585.25 690.42,586.59 688.81,587.93 687.21,589.26 685.60,590.59 684.00,591.91 682.40,593.24 680.80,594.56 679.21,595.88 677.62,597.19 676.03,598.50 674.44,599.81 672.86,601.12 671.28,602.42 669.70,603.72 668.12,605.01 666.55,606.30 664.98,607.59 663.42,608.88 661.86,610.16 660.30,611.44 658.74,612.71 657.19,613.98 655.64,615.25 654.09,616.51 652.55,617.77 651.01,619.03 649.47,620.28 647.94,621.53 646.41,622.78 644.88,624.02 643.36,625.26 641.84,626.49 640.33,627.72 638.81,628.95 637.31,630.17 635.80,631.39 634.30,632.60 632.80,633.81 631.31,635.02 629.82,636.22 628.33,637.42 626.85,638.61 625.38,639.80 623.90,640.98 622.43,642.16 620.97,643.34 619.50,644.51 618.05,645.68 616.59,646.84 615.15,648.00 613.70,649.15 612.26,650.30 610.82,651.44 609.39,652.58 607.97,653.72 606.54,654.85 605.12,655.97 603.71,657.09 602.30,658.21 600.90,659.32 599.49,660.43 598.10,661.53 596.71,662.62 595.32,663.71 593.94,664.80 592.56,665.88 591.19,666.96 589.82,668.03 588.46,669.09 587.11,670.15 585.75,671.21 584.41,672.26 583.06,673.30 581.73,674.34 580.39,675.37 579.07,676.40 577.75,677.42 576.43,678.44 575.12,679.45 573.81,680.46 572.51,681.46 571.22,682.46 569.93,683.44 568.64,684.43 567.36,685.41 566.09,686.38 564.82,687.34 563.56,688.30 562.30,689.26 561.05,690.21 559.81,691.15 558.57,692.09 557.33,693.02 556.10,693.94 554.88,694.86 553.67,695.77 552.46,696.68 551.25,697.58 550.05,698.47 548.86,699.36 547.67,700.24 546.49,701.12 545.32,701.99 544.15,702.85 542.99,703.70 541.83,704.55 540.68,705.40 539.54,706.23 538.40,707.06 537.27,707.88">