<?xml version='1.0' encoding='UTF-8'?>
<!-- generated on 2022-09-25 13:12:04 by Eclipse SUMO netconvert Version 1.13.0
<configuration xmlns:xsi="http://www.w3.org/2001/XMLSchema-instance" xsi:noNamespaceSchemaLocation="http://sumo.dlr.de/xsd/netconvertConfiguration.xsd">

    <input>
        <opendrive-files value="map_new_new\4\22\22.xodr"/>
    </input>

    <output>
        <output-file value="C:\Users\LinGe\AppData\Local\Temp\tmpk8s3s8a9\22.net.xml"/>
    </output>

    <processing>
        <geometry.max-grade.fix value="false"/>
    </processing>

    <tls_building>
        <tls.left-green.time value="0"/>
    </tls_building>

    <junctions>
        <rectangular-lane-cut value="true"/>
    </junctions>

    <report>
        <aggregate-warnings value="5"/>
    </report>

</configuration>
-->
<net xmlns:xsi="http://www.w3.org/2001/XMLSchema-instance" version="1.9" junctionCornerDetail="5" rectangularLaneCut="true" limitTurnSpeed="5.50" xsi:noNamespaceSchemaLocation="http://sumo.dlr.de/xsd/net_file.xsd">
  <location netOffset="1.56,103.69" convBoundary="0.00,0.00,1124.01,1304.94" origBoundary="-1.56,-103.69,1122.45,1201.26" projParameter="!"/>
  <type id="bidirectional" priority="1" speed="1.39" disallow="pedestrian tram rail_urban rail rail_electric rail_fast ship" width="3.65"/>
  <type id="border" priority="0" speed="1.39" disallow="all" discard="1" width="0.10"/>
  <type id="driving" priority="1" speed="13.89" disallow="pedestrian tram rail_urban rail rail_electric rail_fast ship" width="3.65"/>
  <type id="entry" priority="1" speed="22.22" disallow="pedestrian tram rail_urban rail rail_electric rail_fast ship" width="3.65"/>
  <type id="exit" priority="1" speed="22.22" disallow="pedestrian tram rail_urban rail rail_electric rail_fast ship" width="3.65"/>
  <type id="median" priority="0" speed="1.39" disallow="all" discard="1" width="0.10"/>
  <type id="mwyEntry" priority="1" speed="22.22" allow="private emergency authority army vip passenger hov taxi bus coach delivery truck trailer motorcycle evehicle custom1 custom2" width="3.65"/>
  <type id="mwyExit" priority="1" speed="22.22" allow="private emergency authority army vip passenger hov taxi bus coach delivery truck trailer motorcycle evehicle custom1 custom2" width="3.65"/>
  <type id="none" priority="0" speed="1.39" disallow="all" discard="1" width="1.00"/>
  <type id="offRamp" priority="1" speed="22.22" allow="private emergency authority army vip passenger hov taxi bus coach delivery truck trailer motorcycle evehicle custom1 custom2" width="3.65"/>
  <type id="onRamp" priority="1" speed="22.22" allow="private emergency authority army vip passenger hov taxi bus coach delivery truck trailer motorcycle evehicle custom1 custom2" width="3.65"/>
  <type id="parking" priority="1" speed="1.39" disallow="pedestrian tram rail_urban rail rail_electric rail_fast ship" width="2.50"/>
  <type id="rail" priority="3" speed="33.33" allow="rail_urban rail rail_electric rail_fast" width="3.65"/>
  <type id="restricted" priority="0" speed="13.89" disallow="all" width="3.65"/>
  <type id="roadWorks" priority="0" speed="1.39" allow="authority" width="3.65"/>
  <type id="shoulder" priority="0" speed="1.39" disallow="all" discard="1" width="1.00"/>
  <type id="special1" priority="1" speed="22.22" allow="custom1" discard="1" width="3.65"/>
  <type id="special2" priority="1" speed="22.22" allow="custom2" discard="1" width="3.65"/>
  <type id="special3" priority="1" speed="22.22" allow="custom1 custom2" discard="1" width="3.65"/>
  <type id="stop" priority="1" speed="13.89" disallow="pedestrian tram rail_urban rail rail_electric rail_fast ship" width="3.65"/>
  <type id="tram" priority="2" speed="13.89" allow="tram" width="3.65"/>
  <edge id=":0_0" function="internal">
    <lane id=":0_0_0" index="0" disallow="pedestrian tram rail_urban rail rail_electric rail_fast ship" speed="20.83" length="78.92" width="3.75" shape="946.18,309.70 931.06,319.38 910.07,333.42 890.75,346.61 880.67,353.70"/>
  </edge>
  <edge id=":0_1" function="internal">
    <lane id=":0_1_0" index="0" disallow="pedestrian tram rail_urban rail rail_electric rail_fast ship" speed="22.22" length="79.05" width="3.75" shape="946.18,309.70 878.31,350.21"/>
    <lane id=":0_1_1" index="1" disallow="pedestrian tram rail_urban rail rail_electric rail_fast ship" speed="22.22" length="79.05" width="3.75" shape="944.26,306.48 876.38,346.99"/>
    <lane id=":0_1_2" index="2" disallow="pedestrian tram rail_urban rail rail_electric rail_fast ship" speed="22.22" length="79.05" width="3.75" shape="942.34,303.26 874.46,343.77"/>
  </edge>
  <edge id=":1_0" function="internal">
    <lane id=":1_0_0" index="0" disallow="pedestrian tram rail_urban rail rail_electric rail_fast ship" speed="20.83" length="121.90" width="3.75" shape="421.78,652.02 403.13,668.16 373.21,694.76 344.81,720.25 330.74,733.08"/>
  </edge>
  <edge id=":1_1" function="internal">
    <lane id=":1_1_0" index="0" disallow="pedestrian tram rail_urban rail rail_electric rail_fast ship" speed="22.22" length="121.85" width="3.75" shape="421.78,652.02 328.21,729.91"/>
    <lane id=":1_1_1" index="1" disallow="pedestrian tram rail_urban rail rail_electric rail_fast ship" speed="22.22" length="121.85" width="3.75" shape="419.43,649.10 325.78,727.06"/>
    <lane id=":1_1_2" index="2" disallow="pedestrian tram rail_urban rail rail_electric rail_fast ship" speed="22.22" length="121.85" width="3.75" shape="417.07,646.18 323.34,724.21"/>
  </edge>
  <edge id=":10_0" function="internal">
    <lane id=":10_0_0" index="0" disallow="pedestrian tram rail_urban rail rail_electric rail_fast ship" speed="9.03" length="40.64" width="3.75" shape="461.09,202.87,12.90 500.38,192.47,12.83"/>
  </edge>
  <edge id=":10_1" function="internal">
    <lane id=":10_1_0" index="0" disallow="pedestrian tram rail_urban rail rail_electric rail_fast ship" speed="8.33" length="39.01" width="3.75" shape="461.09,202.87,12.90 468.45,201.47,12.89 480.32,199.66,12.87 492.21,197.99,12.85 499.65,196.97,12.84"/>
  </edge>
  <edge id=":11_0" function="internal">
    <lane id=":11_0_0" index="0" disallow="pedestrian tram rail_urban rail rail_electric rail_fast ship" speed="20.83" length="48.35" width="3.75" shape="932.85,1156.23,19.88 937.25,1162.38,19.90 945.01,1172.66,19.93 954.19,1184.19,19.97 962.87,1194.09,20.00"/>
  </edge>
  <edge id=":11_1" function="internal">
    <lane id=":11_1_0" index="0" disallow="pedestrian tram rail_urban rail rail_electric rail_fast ship" speed="22.22" length="47.86" width="3.75" shape="929.77,1159.52,20.00 962.87,1194.09,20.00"/>
    <lane id=":11_1_1" index="1" disallow="pedestrian tram rail_urban rail rail_electric rail_fast ship" speed="22.22" length="47.86" width="3.75" shape="927.06,1162.11,20.00 960.16,1196.69,20.00"/>
    <lane id=":11_1_2" index="2" disallow="pedestrian tram rail_urban rail rail_electric rail_fast ship" speed="22.22" length="47.86" width="3.75" shape="924.35,1164.70,20.00 957.45,1199.28,20.00"/>
  </edge>
  <edge id=":12_0" function="internal">
    <lane id=":12_0_0" index="0" disallow="pedestrian tram rail_urban rail rail_electric rail_fast ship" speed="20.83" length="67.76" width="3.75" shape="613.18,862.34,19.91 606.81,853.88,19.92 594.82,838.44,19.95 581.49,821.68,19.98 571.09,809.24,20.00"/>
  </edge>
  <edge id=":12_1" function="internal">
    <lane id=":12_1_0" index="0" disallow="pedestrian tram rail_urban rail rail_electric rail_fast ship" speed="22.22" length="67.38" width="3.75" shape="616.26,859.30,20.00 571.09,809.24,20.00"/>
    <lane id=":12_1_1" index="1" disallow="pedestrian tram rail_urban rail rail_electric rail_fast ship" speed="22.22" length="67.38" width="3.75" shape="619.04,856.77,20.00 573.89,806.75,20.00"/>
    <lane id=":12_1_2" index="2" disallow="pedestrian tram rail_urban rail rail_electric rail_fast ship" speed="22.22" length="67.38" width="3.75" shape="621.81,854.24,20.00 576.69,804.25,20.00"/>
  </edge>
  <edge id=":13_0" function="internal">
    <lane id=":13_0_0" index="0" disallow="pedestrian tram rail_urban rail rail_electric rail_fast ship" speed="22.22" length="17.70" width="3.75" shape="871.01,321.37,0.01 874.73,321.20,0.01 878.61,321.07,0.01 882.97,320.20,0.00 888.11,317.85"/>
  </edge>
  <edge id=":13_1" function="internal">
    <lane id=":13_1_0" index="0" disallow="pedestrian tram rail_urban rail rail_electric rail_fast ship" speed="22.22" length="16.16" width="3.75" shape="874.24,326.15 888.11,317.85"/>
    <lane id=":13_1_1" index="1" disallow="pedestrian tram rail_urban rail rail_electric rail_fast ship" speed="22.22" length="16.16" width="3.75" shape="876.16,329.36 890.03,321.07"/>
    <lane id=":13_1_2" index="2" disallow="pedestrian tram rail_urban rail rail_electric rail_fast ship" speed="22.22" length="16.16" width="3.75" shape="878.09,332.58 891.95,324.29"/>
  </edge>
  <edge id=":14_0" function="internal">
    <lane id=":14_0_0" index="0" disallow="pedestrian tram rail_urban rail rail_electric rail_fast ship" speed="14.88" length="21.13" width="3.75" shape="194.20,250.61,19.99 193.70,255.80,20.00 194.29,260.88,20.00 195.96,265.84,20.00 198.72,270.69,20.00"/>
  </edge>
  <edge id=":14_1" function="internal">
    <lane id=":14_1_0" index="0" disallow="pedestrian tram rail_urban rail rail_electric rail_fast ship" speed="22.22" length="0.75" width="3.75" shape="198.29,270.07,20.00 198.72,270.69,20.00"/>
    <lane id=":14_1_1" index="1" disallow="pedestrian tram rail_urban rail rail_electric rail_fast ship" speed="22.22" length="0.75" width="3.75" shape="195.21,272.19,20.00 195.63,272.81,20.00"/>
    <lane id=":14_1_2" index="2" disallow="pedestrian tram rail_urban rail rail_electric rail_fast ship" speed="22.22" length="0.75" width="3.75" shape="192.12,274.32,20.00 192.55,274.94,20.00"/>
  </edge>
  <edge id=":14.13_0" function="internal">
    <lane id=":14.13_0_0" index="0" disallow="pedestrian tram rail_urban rail rail_electric rail_fast ship" speed="22.22" length="0.30" width="3.75" shape="505.34,697.80,20.00 505.52,698.03,20.00"/>
    <lane id=":14.13_0_1" index="1" disallow="pedestrian tram rail_urban rail rail_electric rail_fast ship" speed="22.22" length="0.30" width="3.75" shape="502.42,700.15,20.00 502.61,700.38,20.00"/>
    <lane id=":14.13_0_2" index="2" disallow="pedestrian tram rail_urban rail rail_electric rail_fast ship" speed="22.22" length="0.30" width="3.75" shape="499.50,702.51,20.00 499.69,702.74,20.00"/>
  </edge>
  <edge id=":15_0" function="internal">
    <lane id=":15_0_0" index="0" disallow="pedestrian tram rail_urban rail rail_electric rail_fast ship" speed="15.97" length="23.24" width="3.75" shape="212.27,838.52,0.00 208.28,839.76,0.00 203.49,841.53,0.00 197.98,844.43,0.00 191.82,849.09"/>
  </edge>
  <edge id=":15_1" function="internal">
    <lane id=":15_1_0" index="0" disallow="pedestrian tram rail_urban rail rail_electric rail_fast ship" speed="22.22" length="22.01" width="3.75" shape="208.27,834.48 191.82,849.09"/>
    <lane id=":15_1_1" index="1" disallow="pedestrian tram rail_urban rail rail_electric rail_fast ship" speed="22.22" length="22.01" width="3.75" shape="205.78,831.67 189.33,846.29"/>
    <lane id=":15_1_2" index="2" disallow="pedestrian tram rail_urban rail rail_electric rail_fast ship" speed="22.22" length="22.01" width="3.75" shape="203.30,828.87 186.83,843.49"/>
  </edge>
  <edge id=":19.18_0" function="internal">
    <lane id=":19.18_0_0" index="0" disallow="pedestrian tram rail_urban rail rail_electric rail_fast ship" speed="22.22" length="0.30" width="3.75" shape="487.83,712.32,20.00 487.64,712.09,20.00"/>
    <lane id=":19.18_0_1" index="1" disallow="pedestrian tram rail_urban rail rail_electric rail_fast ship" speed="22.22" length="0.30" width="3.75" shape="490.74,709.97,20.00 490.55,709.73,20.00"/>
    <lane id=":19.18_0_2" index="2" disallow="pedestrian tram rail_urban rail rail_electric rail_fast ship" speed="22.22" length="0.30" width="3.75" shape="493.66,707.61,20.00 493.47,707.38,20.00"/>
  </edge>
  <edge id=":2_0" function="internal">
    <lane id=":2_0_0" index="0" disallow="pedestrian tram rail_urban rail rail_electric rail_fast ship" speed="15.97" length="45.50" width="3.75" shape="91.16,908.70 100.23,899.79 109.55,889.67 117.36,880.68 121.89,875.19"/>
  </edge>
  <edge id=":2_1" function="internal">
    <lane id=":2_1_0" index="0" disallow="pedestrian tram rail_urban rail rail_electric rail_fast ship" speed="22.22" length="45.65" width="3.75" shape="91.16,908.70 125.13,878.20"/>
    <lane id=":2_1_1" index="1" disallow="pedestrian tram rail_urban rail rail_electric rail_fast ship" speed="22.22" length="45.65" width="3.75" shape="93.66,911.49 127.63,880.99"/>
    <lane id=":2_1_2" index="2" disallow="pedestrian tram rail_urban rail rail_electric rail_fast ship" speed="22.22" length="45.65" width="3.75" shape="96.17,914.28 130.13,883.78"/>
  </edge>
  <edge id=":2.1_0" function="internal">
    <lane id=":2.1_0_0" index="0" disallow="pedestrian tram rail_urban rail rail_electric rail_fast ship" speed="22.22" length="0.30" width="3.75" shape="505.77,587.18 505.53,587.35"/>
    <lane id=":2.1_0_1" index="1" disallow="pedestrian tram rail_urban rail rail_electric rail_fast ship" speed="22.22" length="0.30" width="3.75" shape="503.57,584.14 503.33,584.32"/>
    <lane id=":2.1_0_2" index="2" disallow="pedestrian tram rail_urban rail rail_electric rail_fast ship" speed="22.22" length="0.30" width="3.75" shape="501.36,581.11 501.12,581.29"/>
  </edge>
  <edge id=":23.22_0" function="internal">
    <lane id=":23.22_0_0" index="0" disallow="pedestrian tram rail_urban rail rail_electric rail_fast ship" speed="11.11" length="0.30" width="3.75" shape="581.98,1040.22,12.01 581.70,1040.14,12.01"/>
  </edge>
  <edge id=":26.25_0" function="internal">
    <lane id=":26.25_0_0" index="0" disallow="pedestrian tram rail_urban rail rail_electric rail_fast ship" speed="9.72" length="0.29" width="3.75" shape="252.03,622.70,8.67 252.05,622.41,8.68"/>
  </edge>
  <edge id=":29.28_0" function="internal">
    <lane id=":29.28_0_0" index="0" disallow="pedestrian tram rail_urban rail rail_electric rail_fast ship" speed="8.33" length="2.46" width="3.75" shape="499.84,196.94,12.84 497.82,196.46,11.54"/>
  </edge>
  <edge id=":3_0" function="internal">
    <lane id=":3_0_0" index="0" disallow="pedestrian tram rail_urban rail rail_electric rail_fast ship" speed="15.28" length="20.48" width="3.75" shape="188.08,255.23,20.00 192.25,260.49,19.99 196.24,264.09,19.98 200.03,266.45,19.97 203.65,267.98,19.96"/>
  </edge>
  <edge id=":3_1" function="internal">
    <lane id=":3_1_0" index="0" disallow="pedestrian tram rail_urban rail rail_electric rail_fast ship" speed="22.22" length="17.81" width="3.75" shape="188.08,255.23,20.00 198.18,269.90,20.00"/>
    <lane id=":3_1_1" index="1" disallow="pedestrian tram rail_urban rail rail_electric rail_fast ship" speed="22.22" length="17.81" width="3.75" shape="184.99,257.36,20.00 195.09,272.03,20.00"/>
    <lane id=":3_1_2" index="2" disallow="pedestrian tram rail_urban rail rail_electric rail_fast ship" speed="22.22" length="17.81" width="3.75" shape="181.90,259.48,20.00 192.00,274.16,20.00"/>
  </edge>
  <edge id=":31.30_0" function="internal">
    <lane id=":31.30_0_0" index="0" disallow="pedestrian tram rail_urban rail rail_electric rail_fast ship" speed="19.44" length="0.30" width="3.75" shape="782.45,727.76,9.82 782.45,728.05,9.83"/>
  </edge>
  <edge id=":33.32_0" function="internal">
    <lane id=":33.32_0_0" index="0" disallow="pedestrian tram rail_urban rail rail_electric rail_fast ship" speed="19.44" length="0.30" width="3.75" shape="246.35,1207.97,8.74 246.56,1208.17,8.75"/>
  </edge>
  <edge id=":35.34_0" function="internal">
    <lane id=":35.34_0_0" index="0" disallow="pedestrian tram rail_urban rail rail_electric rail_fast ship" speed="22.22" length="0.30" width="3.75" shape="374.52,573.69,6.42 374.63,573.42,6.41"/>
  </edge>
  <edge id=":37.36_0" function="internal">
    <lane id=":37.36_0_0" index="0" disallow="pedestrian tram rail_urban rail rail_electric rail_fast ship" speed="13.89" length="0.30" width="3.75" shape="739.67,173.84,13.16 739.64,173.54,13.16"/>
  </edge>
  <edge id=":39.38_0" function="internal">
    <lane id=":39.38_0_0" index="0" disallow="pedestrian tram rail_urban rail rail_electric rail_fast ship" speed="9.72" length="0.29" width="3.75" shape="1097.30,576.90,6.44 1097.19,577.17,6.44"/>
  </edge>
  <edge id=":4_0" function="internal">
    <lane id=":4_0_0" index="0" disallow="pedestrian tram rail_urban rail rail_electric rail_fast ship" speed="16.67" length="39.87" width="3.75" shape="896.38,1157.50,20.00 887.81,1149.33,20.00 878.76,1141.73,20.00 870.85,1135.66,20.00 865.73,1132.10,20.00"/>
  </edge>
  <edge id=":4_1" function="internal">
    <lane id=":4_1_0" index="0" disallow="pedestrian tram rail_urban rail rail_electric rail_fast ship" speed="22.22" length="40.12" width="3.75" shape="896.38,1157.50,20.00 868.67,1128.49,20.00"/>
    <lane id=":4_1_1" index="1" disallow="pedestrian tram rail_urban rail rail_electric rail_fast ship" speed="22.22" length="40.12" width="3.75" shape="899.09,1154.91,20.00 871.38,1125.90,20.00"/>
    <lane id=":4_1_2" index="2" disallow="pedestrian tram rail_urban rail rail_electric rail_fast ship" speed="22.22" length="40.12" width="3.75" shape="901.80,1152.32,20.00 874.10,1123.31,20.00"/>
  </edge>
  <edge id=":5_0" function="internal">
    <lane id=":5_0_0" index="0" disallow="pedestrian tram rail_urban rail rail_electric rail_fast ship" speed="16.67" length="32.99" width="3.75" shape="135.88,906.26,0.09 131.16,908.40,0.08 124.48,912.04,0.06 116.58,917.22,0.03 108.20,923.95"/>
  </edge>
  <edge id=":5_1" function="internal">
    <lane id=":5_1_0" index="0" disallow="pedestrian tram rail_urban rail rail_electric rail_fast ship" speed="22.22" length="32.06" width="3.75" shape="132.05,902.52 108.20,923.95"/>
    <lane id=":5_1_1" index="1" disallow="pedestrian tram rail_urban rail rail_electric rail_fast ship" speed="22.22" length="32.06" width="3.75" shape="129.54,899.73 105.69,921.16"/>
    <lane id=":5_1_2" index="2" disallow="pedestrian tram rail_urban rail rail_electric rail_fast ship" speed="22.22" length="32.06" width="3.75" shape="127.04,896.94 103.18,918.37"/>
  </edge>
  <edge id=":6_0" function="internal">
    <lane id=":6_0_0" index="0" disallow="pedestrian tram rail_urban rail rail_electric rail_fast ship" speed="11.11" length="3.00" width="3.75" shape="626.67,1053.09,12.72 623.78,1052.27,12.67"/>
  </edge>
  <edge id=":6_1" function="internal">
    <lane id=":6_1_0" index="0" disallow="pedestrian tram rail_urban rail rail_electric rail_fast ship" speed="16.67" length="3.00" width="3.75" shape="626.67,1053.09,12.72 623.78,1052.27,12.70"/>
  </edge>
  <edge id=":7_0" function="internal">
    <lane id=":7_0_0" index="0" disallow="pedestrian tram rail_urban rail rail_electric rail_fast ship" speed="15.97" length="80.73" width="3.75" shape="175.12,283.94,20.00 168.73,273.06,20.00 156.32,252.52,20.00 142.77,230.48,20.00 132.92,215.13,20.00"/>
  </edge>
  <edge id=":7_1" function="internal">
    <lane id=":7_1_0" index="0" disallow="pedestrian tram rail_urban rail rail_electric rail_fast ship" speed="22.22" length="80.43" width="3.75" shape="178.49,281.41,20.00 132.92,215.13,20.00"/>
    <lane id=":7_1_1" index="1" disallow="pedestrian tram rail_urban rail rail_electric rail_fast ship" speed="22.22" length="80.43" width="3.75" shape="181.58,279.28,20.00 136.01,213.00,20.00"/>
    <lane id=":7_1_2" index="2" disallow="pedestrian tram rail_urban rail rail_electric rail_fast ship" speed="22.22" length="80.43" width="3.75" shape="184.67,277.15,20.00 139.11,210.88,20.00"/>
  </edge>
  <edge id=":8_0" function="internal">
    <lane id=":8_0_0" index="0" disallow="pedestrian tram rail_urban rail rail_electric rail_fast ship" speed="9.72" length="2.99" width="3.75" shape="228.63,693.49,6.15 229.84,690.75,6.25"/>
  </edge>
  <edge id=":8_1" function="internal">
    <lane id=":8_1_0" index="0" disallow="pedestrian tram rail_urban rail rail_electric rail_fast ship" speed="11.81" length="3.00" width="3.75" shape="228.63,693.49,6.15 229.85,690.75,6.20"/>
  </edge>
  <edge id=":8.7_0" function="internal">
    <lane id=":8.7_0_0" index="0" disallow="pedestrian tram rail_urban rail rail_electric rail_fast ship" speed="22.22" length="0.30" width="3.75" shape="492.15,568.95 492.39,568.78"/>
    <lane id=":8.7_0_1" index="1" disallow="pedestrian tram rail_urban rail rail_electric rail_fast ship" speed="22.22" length="0.30" width="3.75" shape="494.36,571.99 494.60,571.81"/>
    <lane id=":8.7_0_2" index="2" disallow="pedestrian tram rail_urban rail rail_electric rail_fast ship" speed="22.22" length="0.30" width="3.75" shape="496.56,575.02 496.80,574.84"/>
  </edge>
  <edge id=":9_0" function="internal">
    <lane id=":9_0_0" index="0" disallow="pedestrian tram rail_urban rail rail_electric rail_fast ship" speed="15.28" length="37.87" width="3.75" shape="879.63,317.04,0.11 885.29,315.28,0.09 893.99,312.03,0.06 904.19,307.57,0.03 914.37,302.18"/>
  </edge>
  <edge id=":9_1" function="internal">
    <lane id=":9_1_0" index="0" disallow="pedestrian tram rail_urban rail rail_electric rail_fast ship" speed="22.22" length="30.38" width="3.75" shape="888.28,317.75 914.37,302.18"/>
    <lane id=":9_1_1" index="1" disallow="pedestrian tram rail_urban rail rail_electric rail_fast ship" speed="22.22" length="30.38" width="3.75" shape="890.20,320.97 916.29,305.40"/>
    <lane id=":9_1_2" index="2" disallow="pedestrian tram rail_urban rail rail_electric rail_fast ship" speed="22.22" length="30.38" width="3.75" shape="892.12,324.19 918.21,308.62"/>
  </edge>
  <edge id="-0" from="0.begin" to="0" priority="1" type="driving" shape="1102.73,205.30 1101.81,205.88 1100.87,206.46 1099.90,207.06 1098.92,207.66 1097.91,208.28 1096.89,208.91 1095.84,209.55 1094.78,210.21 1093.69,210.87 1092.59,211.54 1091.46,212.23 1090.32,212.93 1089.15,213.63 1087.97,214.35 1086.77,215.08 1085.55,215.82 1084.31,216.57 1083.05,217.33 1081.78,218.10 1080.48,218.88 1079.17,219.67 1077.84,220.48 1076.49,221.29 1075.12,222.11 1073.74,222.94 1072.33,223.79 1070.91,224.64 1069.48,225.50 1068.02,226.37 1066.55,227.25 1065.06,228.15 1063.55,229.05 1062.03,229.96 1060.49,230.88 1058.94,231.81 1057.36,232.75 1055.78,233.69 1054.17,234.65 1052.55,235.62 1050.92,236.59 1049.26,237.58 1047.60,238.57 1045.91,239.57 1044.21,240.58 1042.50,241.60 1040.77,242.63 1039.03,243.67 1037.27,244.72 1035.50,245.77 1033.71,246.83 1031.91,247.90 1030.09,248.98 1028.26,250.07 1026.42,251.17 1024.56,252.27 1022.68,253.38 1020.80,254.50 1018.90,255.63 1016.99,256.76 1015.06,257.91 1013.12,259.06 1011.17,260.22 1009.20,261.38 1007.22,262.56 1005.23,263.74 1003.23,264.93 1001.21,266.12 999.19,267.33 997.15,268.54 995.09,269.76 993.03,270.98 990.95,272.21 988.87,273.45 986.77,274.69 984.66,275.95 982.54,277.21 980.40,278.47 978.26,279.74 976.11,281.02 973.94,282.31 971.76,283.60 969.58,284.90 967.38,286.20 965.18,287.51 962.96,288.83 960.73,290.15 958.49,291.48 956.25,292.81 953.99,294.15 951.73,295.50 949.45,296.85 947.17,298.21 944.88,299.57 942.57,300.94 940.26,302.31 937.94,303.69">
    <lane id="-0_0" index="0" disallow="pedestrian tram rail_urban rail rail_electric rail_fast ship" speed="22.22" length="188.03" width="3.75" shape="1107.68,213.27 1106.75,213.85 1105.80,214.43 1104.83,215.03 1103.83,215.65 1102.82,216.27 1101.79,216.90 1100.74,217.55 1099.67,218.20 1098.58,218.87 1097.47,219.55 1096.34,220.24 1095.19,220.94 1094.02,221.65 1092.84,222.37 1091.63,223.10 1090.41,223.84 1089.16,224.59 1087.90,225.35 1086.62,226.13 1085.32,226.91 1084.01,227.70 1082.67,228.51 1081.32,229.32 1079.95,230.15 1078.56,230.98 1077.16,231.82 1075.74,232.68 1074.30,233.54 1072.84,234.41 1071.37,235.30 1069.87,236.19 1068.37,237.09 1066.84,238.00 1065.30,238.92 1063.74,239.86 1062.17,240.79 1060.58,241.74 1058.97,242.70 1057.35,243.67 1055.72,244.65 1054.06,245.63 1052.39,246.62 1050.71,247.63 1049.01,248.64 1047.30,249.66 1045.57,250.69 1043.82,251.73 1042.06,252.77 1040.29,253.83 1038.50,254.89 1036.70,255.96 1034.88,257.04 1033.05,258.13 1031.20,259.23 1029.34,260.33 1027.47,261.44 1025.59,262.56 1023.68,263.69 1021.77,264.83 1019.84,265.97 1017.91,267.12 1015.95,268.28 1013.99,269.45 1012.01,270.62 1010.02,271.80 1008.01,272.99 1006.00,274.19 1003.97,275.39 1001.93,276.60 999.88,277.82 997.81,279.04 995.74,280.27 993.65,281.51 991.55,282.76 989.44,284.01 987.32,285.27 985.19,286.53 983.04,287.81 980.89,289.08 978.73,290.37 976.55,291.66 974.36,292.96 972.17,294.26 969.96,295.57 967.75,296.89 965.52,298.21 963.28,299.54 961.04,300.87 958.78,302.21 956.52,303.56 954.24,304.91 951.96,306.27 949.67,307.63 947.37,309.00 946.18,309.70" type="driving"/>
    <lane id="-0_1" index="1" disallow="pedestrian tram rail_urban rail rail_electric rail_fast ship" speed="22.22" length="188.03" width="3.75" shape="1105.70,210.08 1104.77,210.66 1103.82,211.24 1102.86,211.84 1101.87,212.45 1100.86,213.07 1099.83,213.71 1098.78,214.35 1097.71,215.00 1096.62,215.67 1095.51,216.35 1094.39,217.03 1093.24,217.73 1092.07,218.44 1090.89,219.16 1089.69,219.89 1088.46,220.63 1087.22,221.38 1085.96,222.14 1084.68,222.92 1083.39,223.70 1082.07,224.49 1080.74,225.30 1079.39,226.11 1078.02,226.93 1076.63,227.77 1075.23,228.61 1073.81,229.46 1072.37,230.32 1070.91,231.20 1069.44,232.08 1067.95,232.97 1066.44,233.87 1064.92,234.78 1063.38,235.71 1061.82,236.64 1060.25,237.57 1058.66,238.52 1057.05,239.48 1055.43,240.45 1053.80,241.42 1052.14,242.41 1050.47,243.40 1048.79,244.41 1047.09,245.42 1045.38,246.44 1043.65,247.47 1041.90,248.50 1040.15,249.55 1038.37,250.60 1036.58,251.67 1034.78,252.74 1032.96,253.82 1031.13,254.91 1029.29,256.00 1027.43,257.11 1025.56,258.22 1023.67,259.34 1021.77,260.47 1019.86,261.60 1017.93,262.75 1015.99,263.90 1014.04,265.06 1012.07,266.22 1010.09,267.40 1008.10,268.58 1006.10,269.77 1004.08,270.96 1002.06,272.16 1000.02,273.38 997.96,274.59 995.90,275.82 993.82,277.05 991.74,278.29 989.64,279.53 987.53,280.78 985.41,282.04 983.27,283.31 981.13,284.58 978.98,285.86 976.81,287.14 974.64,288.44 972.45,289.73 970.25,291.04 968.05,292.35 965.83,293.66 963.60,294.99 961.37,296.31 959.12,297.65 956.87,298.99 954.60,300.33 952.33,301.69 950.04,303.04 947.75,304.41 945.45,305.77 944.26,306.48" type="driving"/>
    <lane id="-0_2" index="2" disallow="pedestrian tram rail_urban rail rail_electric rail_fast ship" speed="22.22" length="188.03" width="3.75" shape="1103.72,206.90 1102.80,207.47 1101.85,208.06 1100.89,208.65 1099.90,209.26 1098.89,209.88 1097.87,210.51 1096.82,211.15 1095.75,211.81 1094.67,212.47 1093.56,213.15 1092.44,213.83 1091.29,214.53 1090.13,215.24 1088.94,215.95 1087.74,216.68 1086.52,217.42 1085.28,218.17 1084.02,218.94 1082.75,219.71 1081.45,220.49 1080.14,221.28 1078.80,222.08 1077.45,222.90 1076.09,223.72 1074.70,224.55 1073.30,225.39 1071.88,226.25 1070.44,227.11 1068.98,227.98 1067.51,228.86 1066.02,229.75 1064.52,230.66 1062.99,231.57 1061.45,232.49 1059.90,233.42 1058.33,234.36 1056.74,235.30 1055.13,236.26 1053.51,237.23 1051.88,238.20 1050.22,239.19 1048.56,240.18 1046.87,241.18 1045.17,242.19 1043.46,243.21 1041.73,244.24 1039.99,245.28 1038.23,246.33 1036.46,247.38 1034.67,248.44 1032.87,249.52 1031.05,250.59 1029.22,251.68 1027.37,252.78 1025.51,253.88 1023.64,254.99 1021.76,256.11 1019.86,257.24 1017.94,258.38 1016.02,259.52 1014.08,260.67 1012.12,261.83 1010.16,263.00 1008.18,264.17 1006.19,265.35 1004.19,266.54 1002.17,267.74 1000.14,268.94 998.10,270.15 996.05,271.37 993.99,272.59 991.91,273.82 989.82,275.06 987.72,276.31 985.61,277.56 983.49,278.82 981.36,280.08 979.22,281.36 977.06,282.63 974.90,283.92 972.72,285.21 970.54,286.51 968.34,287.81 966.13,289.12 963.92,290.44 961.69,291.76 959.45,293.09 957.21,294.42 954.95,295.76 952.69,297.11 950.41,298.46 948.13,299.82 945.83,301.18 943.53,302.55 942.34,303.26" type="driving"/>
  </edge>