<?xml version='1.0' encoding='UTF-8'?>
<!-- generated on 2022-09-05 16:16:43 by Eclipse SUMO netconvert Version 1.13.0
<configuration xmlns:xsi="http://www.w3.org/2001/XMLSchema-instance" xsi:noNamespaceSchemaLocation="http://sumo.dlr.de/xsd/netconvertConfiguration.xsd">

    <input>
        <opendrive-files value="map\classification\5\62723676\62723676.xodr"/>
    </input>

    <output>
        <output-file value="C:\Users\LinGe\AppData\Local\Temp\tmpgbqlwlob\62723676.net.xml"/>
    </output>

    <processing>
        <geometry.max-grade.fix value="false"/>
    </processing>

    <tls_building>
        <tls.left-green.time value="0"/>
    </tls_building>

    <junctions>
        <rectangular-lane-cut value="true"/>
    </junctions>

    <report>
        <aggregate-warnings value="5"/>
    </report>

</configuration>
-->
<net xmlns:xsi="http://www.w3.org/2001/XMLSchema-instance" version="1.9" junctionCornerDetail="5" rectangularLaneCut="true" limitTurnSpeed="5.50" xsi:noNamespaceSchemaLocation="http://sumo.dlr.de/xsd/net_file.xsd">
  <location netOffset="1.56,101.26" convBoundary="0.00,0.00,1102.73,1302.51" origBoundary="-1.56,-101.26,1101.18,1201.26" projParameter="!"/>
  <type id="bidirectional" priority="1" speed="1.39" disallow="pedestrian tram rail_urban rail rail_electric rail_fast ship" width="3.65"/>
  <type id="border" priority="0" speed="1.39" disallow="all" discard="1" width="0.10"/>
  <type id="driving" priority="1" speed="13.89" disallow="pedestrian tram rail_urban rail rail_electric rail_fast ship" width="3.65"/>
  <type id="entry" priority="1" speed="22.22" disallow="pedestrian tram rail_urban rail rail_electric rail_fast ship" width="3.65"/>
  <type id="exit" priority="1" speed="22.22" disallow="pedestrian tram rail_urban rail rail_electric rail_fast ship" width="3.65"/>
  <type id="median" priority="0" speed="1.39" disallow="all" discard="1" width="0.10"/>
  <type id="mwyEntry" priority="1" speed="22.22" allow="private emergency authority army vip passenger hov taxi bus coach delivery truck trailer motorcycle evehicle custom1 custom2" width="3.65"/>
  <type id="mwyExit" priority="1" speed="22.22" allow="private emergency authority army vip passenger hov taxi bus coach delivery truck trailer motorcycle evehicle custom1 custom2" width="3.65"/>
  <type id="none" priority="0" speed="1.39" disallow="all" discard="1" width="1.00"/>
  <type id="offRamp" priority="1" speed="22.22" allow="private emergency authority army vip passenger hov taxi bus coach delivery truck trailer motorcycle evehicle custom1 custom2" width="3.65"/>
  <type id="onRamp" priority="1" speed="22.22" allow="private emergency authority army vip passenger hov taxi bus coach delivery truck trailer motorcycle evehicle custom1 custom2" width="3.65"/>
  <type id="parking" priority="1" speed="1.39" disallow="pedestrian tram rail_urban rail rail_electric rail_fast ship" width="2.50"/>
  <type id="rail" priority="3" speed="33.33" allow="rail_urban rail rail_electric rail_fast" width="3.65"/>
  <type id="restricted" priority="0" speed="13.89" disallow="all" width="3.65"/>
  <type id="roadWorks" priority="0" speed="1.39" allow="authority" width="3.65"/>
  <type id="shoulder" priority="0" speed="1.39" disallow="all" discard="1" width="1.00"/>
  <type id="special1" priority="1" speed="22.22" allow="custom1" discard="1" width="3.65"/>
  <type id="special2" priority="1" speed="22.22" allow="custom2" discard="1" width="3.65"/>
  <type id="special3" priority="1" speed="22.22" allow="custom1 custom2" discard="1" width="3.65"/>
  <type id="stop" priority="1" speed="13.89" disallow="pedestrian tram rail_urban rail rail_electric rail_fast ship" width="3.65"/>
  <type id="tram" priority="2" speed="13.89" allow="tram" width="3.65"/>
  <edge id=":0_0" function="internal">
    <lane id=":0_0_0" index="0" disallow="pedestrian tram rail_urban rail rail_electric rail_fast ship" speed="15.97" length="31.13" width="3.75" shape="1020.77,287.99 1013.36,295.37,0.05 1007.74,302.15,0.08 1003.71,307.84,0.11 1001.04,311.94,0.14"/>
  </edge>
  <edge id=":0_1" function="internal">
    <lane id=":0_1_0" index="0" disallow="pedestrian tram rail_urban rail rail_electric rail_fast ship" speed="22.22" length="31.29" width="3.75" shape="1020.77,287.99 997.45,308.86"/>
    <lane id=":0_1_1" index="1" disallow="pedestrian tram rail_urban rail rail_electric rail_fast ship" speed="22.22" length="31.29" width="3.75" shape="1018.27,285.20 994.95,306.06"/>
    <lane id=":0_1_2" index="2" disallow="pedestrian tram rail_urban rail rail_electric rail_fast ship" speed="22.22" length="31.29" width="3.75" shape="1015.77,282.40 992.45,303.27"/>
  </edge>
  <edge id=":1_0" function="internal">
    <lane id=":1_0_0" index="0" disallow="pedestrian tram rail_urban rail rail_electric rail_fast ship" speed="15.97" length="43.77" width="3.75" shape="152.12,897.87 162.51,891.02 173.09,883.19 181.95,876.16 187.16,871.72"/>
  </edge>
  <edge id=":1_1" function="internal">
    <lane id=":1_1_0" index="0" disallow="pedestrian tram rail_urban rail rail_electric rail_fast ship" speed="22.22" length="43.95" width="3.75" shape="152.12,897.87 189.85,875.35"/>
    <lane id=":1_1_1" index="1" disallow="pedestrian tram rail_urban rail rail_electric rail_fast ship" speed="22.22" length="43.95" width="3.75" shape="154.04,901.09 191.78,878.56"/>
    <lane id=":1_1_2" index="2" disallow="pedestrian tram rail_urban rail rail_electric rail_fast ship" speed="22.22" length="43.95" width="3.75" shape="155.96,904.31 193.70,881.78"/>
  </edge>
  <edge id=":10_0" function="internal">
    <lane id=":10_0_0" index="0" disallow="pedestrian tram rail_urban rail rail_electric rail_fast ship" speed="15.97" length="94.48" width="3.75" shape="942.99,1116.50,20.00 950.65,1129.13,20.00 965.75,1153.57,20.00 981.99,1179.51,20.00 993.06,1196.62,20.00"/>
  </edge>
  <edge id=":10_1" function="internal">
    <lane id=":10_1_0" index="0" disallow="pedestrian tram rail_urban rail rail_electric rail_fast ship" speed="22.22" length="94.23" width="3.75" shape="939.67,1118.98,20.00 993.06,1196.62,20.00"/>
    <lane id=":10_1_1" index="1" disallow="pedestrian tram rail_urban rail rail_electric rail_fast ship" speed="22.22" length="94.23" width="3.75" shape="936.58,1121.10,20.00 989.97,1198.75,20.00"/>
    <lane id=":10_1_2" index="2" disallow="pedestrian tram rail_urban rail rail_electric rail_fast ship" speed="22.22" length="94.23" width="3.75" shape="933.49,1123.23,20.00 986.88,1200.87,20.00"/>
  </edge>
  <edge id=":11_0" function="internal">
    <lane id=":11_0_0" index="0" disallow="pedestrian tram rail_urban rail rail_electric rail_fast ship" speed="9.72" length="3.00" width="3.75" shape="926.37,461.13,4.06 925.18,463.89,4.14"/>
  </edge>
  <edge id=":11_1" function="internal">
    <lane id=":11_1_0" index="0" disallow="pedestrian tram rail_urban rail rail_electric rail_fast ship" speed="14.58" length="3.00" width="3.75" shape="926.37,461.13,4.06 925.18,463.89,4.10"/>
  </edge>
  <edge id=":12_0" function="internal">
    <lane id=":12_0_0" index="0" disallow="pedestrian tram rail_urban rail rail_electric rail_fast ship" speed="22.22" length="91.80" width="3.75" shape="637.33,354.10,7.59 727.18,372.90,7.54"/>
  </edge>
  <edge id=":12_1" function="internal">
    <lane id=":12_1_0" index="0" disallow="pedestrian tram rail_urban rail rail_electric rail_fast ship" speed="16.67" length="91.65" width="3.75" shape="636.77,357.90,7.72 727.18,372.90,7.54"/>
  </edge>
  <edge id=":13_0" function="internal">
    <lane id=":13_0_0" index="0" disallow="pedestrian tram rail_urban rail rail_electric rail_fast ship" speed="9.72" length="54.08" width="3.75" shape="848.49,785.74,13.34 852.19,839.69,13.39"/>
  </edge>
  <edge id=":13_1" function="internal">
    <lane id=":13_1_0" index="0" disallow="pedestrian tram rail_urban rail rail_electric rail_fast ship" speed="14.58" length="53.80" width="3.75" shape="844.55,786.43,13.25 852.19,839.69,13.39"/>
  </edge>
  <edge id=":14_0" function="internal">
    <lane id=":14_0_0" index="0" disallow="pedestrian tram rail_urban rail rail_electric rail_fast ship" speed="19.44" length="20.76" width="3.75" shape="500.94,886.49,7.09 481.62,878.89,7.06"/>
  </edge>
  <edge id=":14_1" function="internal">
    <lane id=":14_1_0" index="0" disallow="pedestrian tram rail_urban rail rail_electric rail_fast ship" speed="20.83" length="20.37" width="3.75" shape="501.63,882.26,7.10 497.05,882.08,7.09 491.50,881.34,7.08 486.01,880.21,7.07 481.62,878.89,7.06"/>
  </edge>
  <edge id=":14.13_0" function="internal">
    <lane id=":14.13_0_0" index="0" disallow="pedestrian tram rail_urban rail rail_electric rail_fast ship" speed="22.22" length="0.30" width="3.75" shape="519.10,568.18,20.00 518.91,567.95,20.00"/>
    <lane id=":14.13_0_1" index="1" disallow="pedestrian tram rail_urban rail rail_electric rail_fast ship" speed="22.22" length="0.30" width="3.75" shape="522.02,565.82,20.00 521.83,565.59,20.00"/>
    <lane id=":14.13_0_2" index="2" disallow="pedestrian tram rail_urban rail rail_electric rail_fast ship" speed="22.22" length="0.30" width="3.75" shape="524.93,563.47,20.00 524.74,563.23,20.00"/>
  </edge>
  <edge id=":15_0" function="internal">
    <lane id=":15_0_0" index="0" disallow="pedestrian tram rail_urban rail rail_electric rail_fast ship" speed="9.72" length="81.24" width="3.75" shape="276.27,438.10,13.59 240.95,364.94,13.63"/>
  </edge>
  <edge id=":15_1" function="internal">
    <lane id=":15_1_0" index="0" disallow="pedestrian tram rail_urban rail rail_electric rail_fast ship" speed="14.58" length="81.08" width="3.75" shape="279.67,436.18,13.40 240.95,364.94,13.63"/>
  </edge>
  <edge id=":19.18_0" function="internal">
    <lane id=":19.18_0_0" index="0" disallow="pedestrian tram rail_urban rail rail_electric rail_fast ship" speed="19.44" length="0.30" width="3.75" shape="443.86,864.62,6.12 443.58,864.52,6.11"/>
  </edge>
  <edge id=":2_0" function="internal">
    <lane id=":2_0_0" index="0" disallow="pedestrian tram rail_urban rail rail_electric rail_fast ship" speed="22.22" length="59.88" width="3.75" shape="264.56,255.79,20.00 275.33,266.20,20.00 289.18,278.77,20.00 301.84,289.88,20.00 309.03,295.86,20.00"/>
  </edge>
  <edge id=":2_1" function="internal">
    <lane id=":2_1_0" index="0" disallow="pedestrian tram rail_urban rail rail_electric rail_fast ship" speed="22.22" length="60.11" width="3.75" shape="264.56,255.79,20.00 306.15,299.21,20.00"/>
    <lane id=":2_1_1" index="1" disallow="pedestrian tram rail_urban rail rail_electric rail_fast ship" speed="22.22" length="60.11" width="3.75" shape="261.86,258.39,20.00 303.43,301.80,20.00"/>
    <lane id=":2_1_2" index="2" disallow="pedestrian tram rail_urban rail rail_electric rail_fast ship" speed="22.22" length="60.11" width="3.75" shape="259.15,260.99,20.00 300.72,304.39,20.00"/>
  </edge>
  <edge id=":2.1_0" function="internal">
    <lane id=":2.1_0_0" index="0" disallow="pedestrian tram rail_urban rail rail_electric rail_fast ship" speed="22.22" length="0.30" width="3.75" shape="608.46,636.77 608.22,636.95"/>
    <lane id=":2.1_0_1" index="1" disallow="pedestrian tram rail_urban rail rail_electric rail_fast ship" speed="22.22" length="0.30" width="3.75" shape="606.25,633.74 606.01,633.91"/>
    <lane id=":2.1_0_2" index="2" disallow="pedestrian tram rail_urban rail rail_electric rail_fast ship" speed="22.22" length="0.30" width="3.75" shape="604.05,630.70 603.81,630.88"/>
  </edge>
  <edge id=":22.21_0" function="internal">
    <lane id=":22.21_0_0" index="0" disallow="pedestrian tram rail_urban rail rail_electric rail_fast ship" speed="9.72" length="0.29" width="3.75" shape="327.37,575.01,8.31 327.35,574.72,8.32"/>
  </edge>
  <edge id=":25.24_0" function="internal">
    <lane id=":25.24_0_0" index="0" disallow="pedestrian tram rail_urban rail rail_electric rail_fast ship" speed="22.22" length="0.10" width="3.75" shape="491.26,332.93,13.48 491.20,332.93,13.48"/>
  </edge>
  <edge id=":3_0" function="internal">
    <lane id=":3_0_0" index="0" disallow="pedestrian tram rail_urban rail rail_electric rail_fast ship" speed="20.83" length="65.63" width="3.75" shape="969.15,1201.99,20.00 959.70,1189.24,20.00 946.93,1172.97,20.00 935.12,1158.32,20.00 928.56,1150.43,20.00"/>
  </edge>
  <edge id=":3_1" function="internal">
    <lane id=":3_1_0" index="0" disallow="pedestrian tram rail_urban rail rail_electric rail_fast ship" speed="22.22" length="65.76" width="3.75" shape="969.15,1201.99,20.00 931.90,1147.80,20.00"/>
    <lane id=":3_1_1" index="1" disallow="pedestrian tram rail_urban rail rail_electric rail_fast ship" speed="22.22" length="65.76" width="3.75" shape="972.24,1199.86,20.00 934.99,1145.67,20.00"/>
    <lane id=":3_1_2" index="2" disallow="pedestrian tram rail_urban rail rail_electric rail_fast ship" speed="22.22" length="65.76" width="3.75" shape="975.33,1197.74,20.00 938.08,1143.55,20.00"/>
  </edge>
  <edge id=":30.29_0" function="internal">
    <lane id=":30.29_0_0" index="0" disallow="pedestrian tram rail_urban rail rail_electric rail_fast ship" speed="9.72" length="0.30" width="3.75" shape="850.20,680.10,8.80 850.19,680.40,8.81"/>
  </edge>
  <edge id=":33.32_0" function="internal">
    <lane id=":33.32_0_0" index="0" disallow="pedestrian tram rail_urban rail rail_electric rail_fast ship" speed="11.11" length="0.30" width="3.75" shape="312.23,465.99,10.59 312.19,465.69,10.59"/>
  </edge>
  <edge id=":35.34_0" function="internal">
    <lane id=":35.34_0_0" index="0" disallow="pedestrian tram rail_urban rail rail_electric rail_fast ship" speed="19.44" length="0.30" width="3.75" shape="629.46,510.57,9.36 629.74,510.65,9.37"/>
  </edge>
  <edge id=":37.36_0" function="internal">
    <lane id=":37.36_0_0" index="0" disallow="pedestrian tram rail_urban rail rail_electric rail_fast ship" speed="22.22" length="0.30" width="3.75" shape="671.70,614.80,10.26 671.70,615.10,10.26"/>
  </edge>
  <edge id=":39.38_0" function="internal">
    <lane id=":39.38_0_0" index="0" disallow="pedestrian tram rail_urban rail rail_electric rail_fast ship" speed="19.44" length="0.30" width="3.75" shape="581.30,682.37,8.62 581.00,682.33,8.62"/>
  </edge>
  <edge id=":4_0" function="internal">
    <lane id=":4_0_0" index="0" disallow="pedestrian tram rail_urban rail rail_electric rail_fast ship" speed="20.83" length="68.20" width="3.75" shape="237.54,878.33,0.00 227.93,882.95,0.00 210.33,891.79,0.00 191.18,901.70,0.00 176.92,909.55"/>
  </edge>
  <edge id=":4_1" function="internal">
    <lane id=":4_1_0" index="0" disallow="pedestrian tram rail_urban rail rail_electric rail_fast ship" speed="22.22" length="67.82" width="3.75" shape="235.12,874.72 176.92,909.55"/>
    <lane id=":4_1_1" index="1" disallow="pedestrian tram rail_urban rail rail_electric rail_fast ship" speed="22.22" length="67.82" width="3.75" shape="233.19,871.50 175.00,906.33"/>
    <lane id=":4_1_2" index="2" disallow="pedestrian tram rail_urban rail rail_electric rail_fast ship" speed="22.22" length="67.82" width="3.75" shape="231.26,868.29 173.07,903.11"/>
  </edge>
  <edge id=":5_0" function="internal">
    <lane id=":5_0_0" index="0" disallow="pedestrian tram rail_urban rail rail_electric rail_fast ship" speed="19.44" length="3.00" width="3.75" shape="821.94,1056.19,15.31 819.52,1054.43,15.22"/>
  </edge>
  <edge id=":5_1" function="internal">
    <lane id=":5_1_0" index="0" disallow="pedestrian tram rail_urban rail rail_electric rail_fast ship" speed="15.28" length="3.00" width="3.75" shape="821.94,1056.19,15.31 819.52,1054.42,15.27"/>
  </edge>
  <edge id=":6_0" function="internal">
    <lane id=":6_0_0" index="0" disallow="pedestrian tram rail_urban rail rail_electric rail_fast ship" speed="15.97" length="44.98" width="3.75" shape="111.99,137.60,19.81 107.89,131.89,19.84 100.83,122.53,19.89 92.35,111.92,19.95 83.94,102.49,20.00"/>
  </edge>
  <edge id=":6_1" function="internal">
    <lane id=":6_1_0" index="0" disallow="pedestrian tram rail_urban rail rail_electric rail_fast ship" speed="22.22" length="44.48" width="3.75" shape="115.03,134.30,20.00 83.94,102.49,20.00"/>
    <lane id=":6_1_1" index="1" disallow="pedestrian tram rail_urban rail rail_electric rail_fast ship" speed="22.22" length="44.48" width="3.75" shape="117.71,131.68,20.00 86.63,99.87,20.00"/>
    <lane id=":6_1_2" index="2" disallow="pedestrian tram rail_urban rail rail_electric rail_fast ship" speed="22.22" length="44.48" width="3.75" shape="120.40,129.07,20.00 89.31,97.24,20.00"/>
  </edge>
  <edge id=":6.5_0" function="internal">
    <lane id=":6.5_0_0" index="0" disallow="pedestrian tram rail_urban rail rail_electric rail_fast ship" speed="22.22" length="0.30" width="3.75" shape="594.84,618.55 595.08,618.37"/>
    <lane id=":6.5_0_1" index="1" disallow="pedestrian tram rail_urban rail rail_electric rail_fast ship" speed="22.22" length="0.30" width="3.75" shape="597.04,621.58 597.28,621.40"/>
    <lane id=":6.5_0_2" index="2" disallow="pedestrian tram rail_urban rail rail_electric rail_fast ship" speed="22.22" length="0.30" width="3.75" shape="599.25,624.61 599.49,624.43"/>
  </edge>
  <edge id=":7_0" function="internal">
    <lane id=":7_0_0" index="0" disallow="pedestrian tram rail_urban rail rail_electric rail_fast ship" speed="9.72" length="2.99" width="3.75" shape="304.53,688.89,5.49 305.59,686.10,5.57"/>
  </edge>
  <edge id=":7_1" function="internal">
    <lane id=":7_1_0" index="0" disallow="pedestrian tram rail_urban rail rail_electric rail_fast ship" speed="14.58" length="3.00" width="3.75" shape="304.53,688.89,5.49 305.60,686.10,5.53"/>
  </edge>
  <edge id=":8_0" function="internal">
    <lane id=":8_0_0" index="0" disallow="pedestrian tram rail_urban rail rail_electric rail_fast ship" speed="22.22" length="67.86" width="3.75" shape="924.05,338.01,0.00 932.59,331.73,0.00 948.15,319.84,0.00 965.01,306.58,0.00 977.49,296.21"/>
  </edge>
  <edge id=":8_1" function="internal">
    <lane id=":8_1_0" index="0" disallow="pedestrian tram rail_urban rail rail_electric rail_fast ship" speed="22.22" length="67.49" width="3.75" shape="927.13,341.12 977.49,296.21"/>
    <lane id=":8_1_1" index="1" disallow="pedestrian tram rail_urban rail rail_electric rail_fast ship" speed="22.22" length="67.49" width="3.75" shape="929.62,343.92 979.99,299.01"/>
    <lane id=":8_1_2" index="2" disallow="pedestrian tram rail_urban rail rail_electric rail_fast ship" speed="22.22" length="67.49" width="3.75" shape="932.11,346.73 982.49,301.81"/>
  </edge>
  <edge id=":9_0" function="internal">
    <lane id=":9_0_0" index="0" disallow="pedestrian tram rail_urban rail rail_electric rail_fast ship" speed="22.22" length="28.81" width="3.75" shape="491.56,332.95,13.48 520.29,335.13,13.45"/>
  </edge>
  <edge id=":9_1" function="internal">
    <lane id=":9_1_0" index="0" disallow="pedestrian tram rail_urban rail rail_electric rail_fast ship" speed="22.22" length="29.63" width="3.75" shape="491.56,332.95,13.48 497.51,333.84,13.46 506.11,335.67,13.45 514.64,337.78,13.43 520.41,339.54,13.42"/>
  </edge>
  <edge id=":9.10_0" function="internal">
    <lane id=":9.10_0_0" index="0" disallow="pedestrian tram rail_urban rail rail_electric rail_fast ship" speed="22.22" length="0.30" width="3.75" shape="536.61,553.65,20.00 536.80,553.89,20.00"/>
    <lane id=":9.10_0_1" index="1" disallow="pedestrian tram rail_urban rail rail_electric rail_fast ship" speed="22.22" length="0.30" width="3.75" shape="533.69,556.01,20.00 533.88,556.24,20.00"/>
    <lane id=":9.10_0_2" index="2" disallow="pedestrian tram rail_urban rail rail_electric rail_fast ship" speed="22.22" length="0.30" width="3.75" shape="530.77,558.37,20.00 530.96,558.60,20.00"/>
  </edge>
  <edge id="-0" from="0.begin" to="0" priority="1" type="driving" shape="1102.73,202.87 1101.76,203.71 1100.76,204.56 1099.74,205.43 1098.71,206.32 1097.65,207.23 1096.58,208.16 1095.49,209.11 1094.37,210.07 1093.24,211.05 1092.09,212.05 1090.92,213.07 1089.74,214.11 1088.53,215.16 1087.31,216.23 1086.06,217.32 1084.80,218.43 1083.52,219.55 1082.23,220.69 1080.92,221.85 1079.58,223.02 1078.24,224.21 1076.87,225.41 1075.49,226.64 1074.09,227.87 1072.67,229.13 1071.24,230.40 1069.79,231.68 1068.32,232.98 1066.84,234.30 1065.34,235.63 1063.82,236.98 1062.29,238.34 1060.74,239.71 1059.18,241.10 1057.60,242.51 1056.01,243.93 1054.40,245.36 1052.77,246.81 1051.13,248.27 1049.48,249.75 1047.81,251.24 1046.13,252.74 1044.43,254.26 1042.72,255.79 1040.99,257.33 1039.25,258.89 1037.49,260.45 1035.72,262.04 1033.94,263.63 1032.14,265.24 1030.33,266.85 1028.51,268.49 1026.68,270.13 1024.83,271.78 1022.96,273.45 1021.09,275.13 1019.20,276.82 1017.30,278.52 1015.39,280.23 1013.46,281.95 1011.52,283.69">
    <lane id="-0_0" index="0" disallow="pedestrian tram rail_urban rail rail_electric rail_fast ship" speed="22.22" length="117.71" width="3.75" shape="1108.82,210.00 1107.85,210.83 1106.86,211.68 1105.85,212.54 1104.83,213.43 1103.78,214.33 1102.71,215.25 1101.62,216.19 1100.52,217.15 1099.39,218.13 1098.25,219.12 1097.08,220.14 1095.90,221.17 1094.70,222.22 1093.48,223.29 1092.24,224.37 1090.99,225.47 1089.71,226.59 1088.42,227.73 1087.11,228.88 1085.78,230.05 1084.44,231.24 1083.07,232.44 1081.69,233.66 1080.30,234.90 1078.88,236.15 1077.45,237.41 1076.00,238.70 1074.54,240.00 1073.06,241.31 1071.56,242.64 1070.05,243.98 1068.52,245.34 1066.97,246.72 1065.41,248.11 1063.84,249.51 1062.24,250.93 1060.63,252.36 1059.01,253.81 1057.37,255.27 1055.72,256.74 1054.05,258.23 1052.37,259.73 1050.67,261.25 1048.96,262.78 1047.23,264.32 1045.49,265.88 1043.74,267.44 1041.97,269.03 1040.19,270.62 1038.39,272.22 1036.58,273.84 1034.76,275.47 1032.93,277.12 1031.08,278.77 1029.21,280.44 1027.34,282.11 1025.45,283.80 1023.55,285.50 1021.64,287.22 1020.77,287.99" type="driving"/>
    <lane id="-0_1" index="1" disallow="pedestrian tram rail_urban rail rail_electric rail_fast ship" speed="22.22" length="117.71" width="3.75" shape="1106.39,207.15 1105.41,207.98 1104.42,208.83 1103.41,209.70 1102.38,210.59 1101.33,211.49 1100.26,212.42 1099.17,213.36 1098.06,214.32 1096.93,215.30 1095.79,216.30 1094.62,217.31 1093.44,218.35 1092.23,219.40 1091.01,220.47 1089.77,221.55 1088.51,222.66 1087.24,223.78 1085.94,224.91 1084.63,226.07 1083.30,227.24 1081.96,228.43 1080.59,229.63 1079.21,230.85 1077.81,232.09 1076.40,233.34 1074.97,234.61 1073.52,235.89 1072.05,237.19 1070.57,238.51 1069.07,239.84 1067.56,241.18 1066.03,242.54 1064.48,243.92 1062.92,245.31 1061.34,246.71 1059.75,248.13 1058.14,249.56 1056.52,251.01 1054.88,252.47 1053.22,253.95 1051.56,255.44 1049.87,256.94 1048.17,258.45 1046.46,259.98 1044.74,261.52 1043.00,263.08 1041.24,264.65 1039.47,266.23 1037.69,267.82 1035.89,269.43 1034.08,271.05 1032.26,272.68 1030.43,274.32 1028.58,275.98 1026.71,277.64 1024.84,279.32 1022.95,281.01 1021.05,282.71 1019.14,284.42 1018.27,285.20" type="driving"/>
    <lane id="-0_2" index="2" disallow="pedestrian tram rail_urban rail rail_electric rail_fast ship" speed="22.22" length="117.71" width="3.75" shape="1103.95,204.30 1102.97,205.13 1101.98,205.98 1100.97,206.85 1099.93,207.74 1098.88,208.65 1097.81,209.58 1096.71,210.52 1095.60,211.49 1094.47,212.47 1093.32,213.47 1092.16,214.49 1090.97,215.52 1089.76,216.57 1088.54,217.64 1087.30,218.73 1086.04,219.84 1084.76,220.96 1083.47,222.10 1082.15,223.25 1080.82,224.43 1079.48,225.61 1078.11,226.82 1076.73,228.04 1075.33,229.28 1073.91,230.53 1072.48,231.80 1071.03,233.09 1069.56,234.39 1068.08,235.70 1066.58,237.03 1065.07,238.38 1063.53,239.74 1061.99,241.11 1060.43,242.51 1058.85,243.91 1057.25,245.33 1055.64,246.76 1054.02,248.21 1052.38,249.67 1050.73,251.15 1049.06,252.64 1047.38,254.14 1045.68,255.66 1043.96,257.19 1042.24,258.73 1040.50,260.28 1038.74,261.85 1036.97,263.43 1035.19,265.03 1033.39,266.63 1031.58,268.25 1029.76,269.88 1027.93,271.53 1026.08,273.18 1024.21,274.85 1022.34,276.53 1020.45,278.21 1018.55,279.92 1016.64,281.63 1015.77,282.40" type="driving"/>
  </edge>
  <edge id="-1" from="0" to="2.1" priority="1" type="driving" shape="1011.52,283.69 1010.25,284.83 1008.97,285.97 1007.69,287.12 1006.40,288.27 1005.11,289.43 1003.81,290.59 1002.50,291.76 1001.20,292.93 999.88,294.11 998.56,295.28 997.24,296.47 995.91,297.66 994.58,298.85 993.24,300.04 991.90,301.24 990.56,302.45 989.21,303.66 987.85,304.87 986.49,306.08 985.13,307.30 983.76,308.53 982.38,309.75 981.01,310.99 979.62,312.22 978.24,313.46 976.85,314.70 975.45,315.95 974.06,317.20 972.65,318.45 971.25,319.71 969.83,320.97 968.42,322.23 967.00,323.49 965.58,324.76 964.15,326.04 962.72,327.31 961.29,328.59 959.85,329.88 958.40,331.16 956.96,332.45 955.51,333.74 954.06,335.04 952.60,336.34 951.14,337.64 949.67,338.94 948.21,340.25 946.74,341.56 945.26,342.87 943.78,344.18 942.30,345.50 940.82,346.82 939.33,348.15 937.84,349.47 936.35,350.80 934.85,352.13 933.35,353.46 931.84,354.80 930.34,356.14 928.83,357.48 927.31,358.82 925.80,360.16 924.28,361.51 922.76,362.86 921.23,364.21 919.71,365.57 918.18,366.92 916.64,368.28 915.11,369.64 913.57,371.00 912.03,372.36 910.49,373.73 908.94,375.10 907.39,376.47 905.84,377.84 904.29,379.21 902.73,380.58 901.17,381.96 899.61,383.34 898.05,384.72 896.48,386.10 894.92,387.48 893.35,388.86 891.77,390.25 890.20,391.63 888.62,393.02 887.05,394.41 885.47,395.80 883.88,397.19 882.30,398.59 880.71,399.98 879.13,401.38 877.54,402.77 875.94,404.17 874.35,405.57 872.76,406.97 871.16,408.37 869.56,409.77 867.96,411.17 866.36,412.57 864.76,413.97 863.15,415.38 861.55,416.78 859.94,418.19 858.33,419.59 856.72,421.00 855.11,422.41 853.50,423.82 851.88,425.22 850.27,426.63 848.65,428.04 847.03,429.45 845.41,430.86 843.79,432.27 842.17,433.68 840.55,435.09 838.93,436.50 837.30,437.91 835.68,439.32 834.05,440.73 832.43,442.14 830.80,443.55 829.17,444.96 827.55,446.37 825.92,447.78 824.29,449.19 822.66,450.60 821.02,452.01 819.39,453.42 817.76,454.83 816.13,456.23 814.50,457.64 812.86,459.05 811.23,460.45 809.60,461.86 807.96,463.27 806.33,464.67 804.69,466.07 803.06,467.48 801.42,468.88 799.79,470.28 798.15,471.68 796.52,473.08 794.88,474.48 793.25,475.88 791.61,477.28 789.98,478.67 788.34,480.07 786.71,481.46 785.08,482.86 783.44,484.25 781.81,485.64 780.17,487.03 778.54,488.42 776.91,489.80 775.28,491.19 773.65,492.57 772.02,493.95 770.39,495.34 768.76,496.72 767.13,498.09 765.50,499.47 763.87,500.84 762.24,502.22 760.62,503.59 758.99,504.96 757.37,506.32 755.74,507.69 754.12,509.05 752.50,510.42 750.88,511.78 749.26,513.13 747.64,514.49 746.02,515.84 744.41,517.20 742.79,518.55 741.18,519.89 739.57,521.24 737.95,522.58 736.34,523.92 734.74,525.26 733.13,526.60 731.52,527.93 729.92,529.26 728.32,530.59 726.71,531.91 725.12,533.24 723.52,534.56 721.92,535.88 720.33,537.19 718.73,538.50 717.14,539.81 715.55,541.12 713.97,542.43 712.38,543.73 710.80,545.03 709.21,546.32 707.64,547.61 706.06,548.90 704.48,550.19 702.91,551.47 701.34,552.75 699.77,554.03 698.20,555.30 696.64,556.57 695.07,557.84 693.51,559.10 691.96,560.36 690.40,561.62 688.85,562.87 687.30,564.12 685.75,565.37 684.20,566.61 682.66,567.85 681.12,569.09 679.58,570.32 678.05,571.55 676.51,572.77 674.98,573.99 673.46,575.21 671.93,576.42 670.41,577.63 668.89,578.83 667.38,580.03 665.87,581.23 664.36,582.42 662.85,583.61 661.35,584.80 659.85,585.98 658.35,587.15 656.86,588.32 655.37,589.49 653.88,590.65 652.40,591.81 650.92,592.96 649.44,594.11 647.97,595.26 646.50,596.40 645.03,597.53 643.57,598.67 642.11,599.79 640.65,600.91 639.20,602.03 637.75,603.14 636.30,604.25 634.86,605.35 633.42,606.45 631.99,607.54 630.56,608.63 629.13,609.71 627.71,610.79 626.29,611.86 624.88,612.93 623.47,613.99 622.06,615.05 620.66,616.10 619.26,617.15 617.87,618.19 616.48,619.22 615.09,620.25 613.71,621.28 612.34,622.30 610.96,623.31 609.60,624.32 608.23,625.32 606.87,626.32 605.52,627.31 604.17,628.30 602.82,629.28">