<?xml version='1.0' encoding='UTF-8'?>
<!-- generated on 2022-11-12 22:32:34 by Eclipse SUMO netconvert Version 1.13.0
<configuration xmlns:xsi="http://www.w3.org/2001/XMLSchema-instance" xsi:noNamespaceSchemaLocation="http://sumo.dlr.de/xsd/netconvertConfiguration.xsd">

    <input>
        <opendrive-files value="map_v4\4\35271344\35271344.xodr"/>
    </input>

    <output>
        <output-file value="C:\Users\LinGe\AppData\Local\Temp\tmp6pyzt8tl\35271344.net.xml"/>
    </output>

    <processing>
        <geometry.max-grade.fix value="false"/>
    </processing>

    <tls_building>
        <tls.left-green.time value="0"/>
    </tls_building>

    <junctions>
        <rectangular-lane-cut value="true"/>
    </junctions>

    <report>
        <aggregate-warnings value="5"/>
    </report>

</configuration>
-->
<net xmlns:xsi="http://www.w3.org/2001/XMLSchema-instance" version="1.9" junctionCornerDetail="5" rectangularLaneCut="true" limitTurnSpeed="5.50" xsi:noNamespaceSchemaLocation="http://sumo.dlr.de/xsd/net_file.xsd">
  <location netOffset="1.56,206.90" convBoundary="0.00,0.00,1102.73,1408.16" origBoundary="-1.56,-206.90,1101.18,1201.26" projParameter="!"/>
  <type id="bidirectional" priority="1" speed="1.39" disallow="pedestrian tram rail_urban rail rail_electric rail_fast ship" width="3.65"/>
  <type id="border" priority="0" speed="1.39" disallow="all" discard="1" width="0.10"/>
  <type id="driving" priority="1" speed="13.89" disallow="pedestrian tram rail_urban rail rail_electric rail_fast ship" width="3.65"/>
  <type id="entry" priority="1" speed="22.22" disallow="pedestrian tram rail_urban rail rail_electric rail_fast ship" width="3.65"/>
  <type id="exit" priority="1" speed="22.22" disallow="pedestrian tram rail_urban rail rail_electric rail_fast ship" width="3.65"/>
  <type id="median" priority="0" speed="1.39" disallow="all" discard="1" width="0.10"/>
  <type id="mwyEntry" priority="1" speed="22.22" allow="private emergency authority army vip passenger hov taxi bus coach delivery truck trailer motorcycle evehicle custom1 custom2" width="3.65"/>
  <type id="mwyExit" priority="1" speed="22.22" allow="private emergency authority army vip passenger hov taxi bus coach delivery truck trailer motorcycle evehicle custom1 custom2" width="3.65"/>
  <type id="none" priority="0" speed="1.39" disallow="all" discard="1" width="1.00"/>
  <type id="offRamp" priority="1" speed="22.22" allow="private emergency authority army vip passenger hov taxi bus coach delivery truck trailer motorcycle evehicle custom1 custom2" width="3.65"/>
  <type id="onRamp" priority="1" speed="22.22" allow="private emergency authority army vip passenger hov taxi bus coach delivery truck trailer motorcycle evehicle custom1 custom2" width="3.65"/>
  <type id="parking" priority="1" speed="1.39" disallow="pedestrian tram rail_urban rail rail_electric rail_fast ship" width="2.50"/>
  <type id="rail" priority="3" speed="33.33" allow="rail_urban rail rail_electric rail_fast" width="3.65"/>
  <type id="restricted" priority="0" speed="13.89" disallow="all" width="3.65"/>
  <type id="roadWorks" priority="0" speed="1.39" allow="authority" width="3.65"/>
  <type id="shoulder" priority="0" speed="1.39" disallow="all" discard="1" width="1.00"/>
  <type id="special1" priority="1" speed="22.22" allow="custom1" discard="1" width="3.65"/>
  <type id="special2" priority="1" speed="22.22" allow="custom2" discard="1" width="3.65"/>
  <type id="special3" priority="1" speed="22.22" allow="custom1 custom2" discard="1" width="3.65"/>
  <type id="stop" priority="1" speed="13.89" disallow="pedestrian tram rail_urban rail rail_electric rail_fast ship" width="3.65"/>
  <type id="tram" priority="2" speed="13.89" allow="tram" width="3.65"/>
  <edge id=":0_0" function="internal">
    <lane id=":0_0_0" index="0" disallow="pedestrian tram rail_urban rail rail_electric rail_fast ship" speed="22.22" length="104.99" width="3.75" shape="1026.48,365.20 1007.84,376.94 979.11,395.51 952.03,413.19 938.36,422.27"/>
  </edge>
  <edge id=":0_1" function="internal">
    <lane id=":0_1_0" index="0" disallow="pedestrian tram rail_urban rail rail_electric rail_fast ship" speed="22.22" length="105.08" width="3.75" shape="1026.48,365.20 936.13,418.84"/>
    <lane id=":0_1_1" index="1" disallow="pedestrian tram rail_urban rail rail_electric rail_fast ship" speed="22.22" length="105.08" width="3.75" shape="1024.57,361.98 934.21,415.62"/>
    <lane id=":0_1_2" index="2" disallow="pedestrian tram rail_urban rail rail_electric rail_fast ship" speed="22.22" length="105.08" width="3.75" shape="1022.66,358.75 932.30,412.40"/>
  </edge>
  <edge id=":1_0" function="internal">
    <lane id=":1_0_0" index="0" disallow="pedestrian tram rail_urban rail rail_electric rail_fast ship" speed="15.28" length="7.97" width="3.75" shape="417.85,750.44 411.66,755.45,0.02"/>
  </edge>
  <edge id=":1_1" function="internal">
    <lane id=":1_1_0" index="0" disallow="pedestrian tram rail_urban rail rail_electric rail_fast ship" speed="22.22" length="4.55" width="3.75" shape="417.85,750.44 414.29,753.25"/>
    <lane id=":1_1_1" index="1" disallow="pedestrian tram rail_urban rail rail_electric rail_fast ship" speed="22.22" length="4.55" width="3.75" shape="415.54,747.49 411.96,750.30"/>
    <lane id=":1_1_2" index="2" disallow="pedestrian tram rail_urban rail rail_electric rail_fast ship" speed="22.22" length="4.55" width="3.75" shape="413.22,744.54 409.64,747.36"/>
  </edge>
  <edge id=":10_0" function="internal">
    <lane id=":10_0_0" index="0" disallow="pedestrian tram rail_urban rail rail_electric rail_fast ship" speed="9.72" length="3.00" width="3.75" shape="471.78,408.73,12.81 474.77,408.55,12.72"/>
  </edge>
  <edge id=":10_1" function="internal">
    <lane id=":10_1_0" index="0" disallow="pedestrian tram rail_urban rail rail_electric rail_fast ship" speed="11.81" length="3.00" width="3.75" shape="471.78,408.73,12.81 474.78,408.56,12.77"/>
  </edge>
  <edge id=":11_0" function="internal">
    <lane id=":11_0_0" index="0" disallow="pedestrian tram rail_urban rail rail_electric rail_fast ship" speed="22.22" length="152.23" width="3.75" shape="848.36,1173.46,20.00 951.00,1285.88,20.00"/>
  </edge>
  <edge id=":11_1" function="internal">
    <lane id=":11_1_0" index="0" disallow="pedestrian tram rail_urban rail rail_electric rail_fast ship" speed="22.22" length="152.07" width="3.75" shape="845.55,1176.34,20.00 951.00,1285.88,20.00"/>
    <lane id=":11_1_1" index="1" disallow="pedestrian tram rail_urban rail rail_electric rail_fast ship" speed="22.22" length="152.07" width="3.75" shape="842.84,1178.93,20.00 948.31,1288.49,20.00"/>
    <lane id=":11_1_2" index="2" disallow="pedestrian tram rail_urban rail rail_electric rail_fast ship" speed="22.22" length="152.07" width="3.75" shape="840.13,1181.52,20.00 945.61,1291.09,20.00"/>
  </edge>
  <edge id=":12_0" function="internal">
    <lane id=":12_0_0" index="0" disallow="pedestrian tram rail_urban rail rail_electric rail_fast ship" speed="15.28" length="31.30" width="3.75" shape="495.59,834.34,20.00 494.57,829.56,20.00 492.01,823.02,20.00 487.83,815.18,20.00 481.89,806.51,20.00"/>
  </edge>
  <edge id=":12_1" function="internal">
    <lane id=":12_1_0" index="0" disallow="pedestrian tram rail_urban rail rail_electric rail_fast ship" speed="22.22" length="29.93" width="3.75" shape="500.27,830.20,20.00 481.89,806.51,20.00"/>
    <lane id=":12_1_1" index="1" disallow="pedestrian tram rail_urban rail rail_electric rail_fast ship" speed="22.22" length="29.93" width="3.75" shape="503.21,827.88,20.00 484.87,804.23,20.00"/>
    <lane id=":12_1_2" index="2" disallow="pedestrian tram rail_urban rail rail_electric rail_fast ship" speed="22.22" length="29.93" width="3.75" shape="506.16,825.56,20.00 487.85,801.95,20.00"/>
  </edge>
  <edge id=":13_0" function="internal">
    <lane id=":13_0_0" index="0" disallow="pedestrian tram rail_urban rail rail_electric rail_fast ship" speed="16.67" length="29.58" width="3.75" shape="859.42,432.37,0.01 863.96,431.19,0.01 870.21,429.36,0.01 877.94,426.37,0.00 886.89,421.71"/>
  </edge>
  <edge id=":13_1" function="internal">
    <lane id=":13_1_0" index="0" disallow="pedestrian tram rail_urban rail rail_electric rail_fast ship" speed="22.22" length="28.75" width="3.75" shape="862.21,436.46 886.89,421.71"/>
    <lane id=":13_1_1" index="1" disallow="pedestrian tram rail_urban rail rail_electric rail_fast ship" speed="22.22" length="28.75" width="3.75" shape="864.13,439.67 888.81,424.93"/>
    <lane id=":13_1_2" index="2" disallow="pedestrian tram rail_urban rail rail_electric rail_fast ship" speed="22.22" length="28.75" width="3.75" shape="866.06,442.89 890.73,428.15"/>
  </edge>
  <edge id=":14_0" function="internal">
    <lane id=":14_0_0" index="0" disallow="pedestrian tram rail_urban rail rail_electric rail_fast ship" speed="18.06" length="42.19" width="3.75" shape="160.67,308.02,19.98 163.28,314.08,19.98 168.01,323.75,19.99 174.03,334.85,19.99 180.50,345.20,20.00"/>
  </edge>
  <edge id=":14_1" function="internal">
    <lane id=":14_1_0" index="0" disallow="pedestrian tram rail_urban rail rail_electric rail_fast ship" speed="22.22" length="41.53" width="3.75" shape="156.85,311.07,20.00 180.50,345.20,20.00"/>
    <lane id=":14_1_1" index="1" disallow="pedestrian tram rail_urban rail rail_electric rail_fast ship" speed="22.22" length="41.53" width="3.75" shape="153.76,313.21,20.00 177.42,347.34,20.00"/>
    <lane id=":14_1_2" index="2" disallow="pedestrian tram rail_urban rail rail_electric rail_fast ship" speed="22.22" length="41.53" width="3.75" shape="150.68,315.34,20.00 174.34,349.47,20.00"/>
  </edge>
  <edge id=":14.13_0" function="internal">
    <lane id=":14.13_0_0" index="0" disallow="pedestrian tram rail_urban rail rail_electric rail_fast ship" speed="22.22" length="0.30" width="3.75" shape="529.50,830.38,20.00 529.68,830.61,20.00"/>
    <lane id=":14.13_0_1" index="1" disallow="pedestrian tram rail_urban rail rail_electric rail_fast ship" speed="22.22" length="0.30" width="3.75" shape="526.58,832.73,20.00 526.77,832.97,20.00"/>
    <lane id=":14.13_0_2" index="2" disallow="pedestrian tram rail_urban rail rail_electric rail_fast ship" speed="22.22" length="0.30" width="3.75" shape="523.66,835.09,20.00 523.85,835.33,20.00"/>
  </edge>
  <edge id=":15_0" function="internal">
    <lane id=":15_0_0" index="0" disallow="pedestrian tram rail_urban rail rail_electric rail_fast ship" speed="18.06" length="8.36" width="3.75" shape="417.36,751.35,0.00 415.20,752.55,0.00 413.80,753.51,0.00 412.49,754.60,0.00 410.58,756.18"/>
  </edge>
  <edge id=":15_1" function="internal">
    <lane id=":15_1_0" index="0" disallow="pedestrian tram rail_urban rail rail_electric rail_fast ship" speed="22.22" length="4.54" width="3.75" shape="414.13,753.37 410.58,756.18"/>
    <lane id=":15_1_1" index="1" disallow="pedestrian tram rail_urban rail rail_electric rail_fast ship" speed="22.22" length="4.54" width="3.75" shape="411.81,750.43 408.24,753.25"/>
    <lane id=":15_1_2" index="2" disallow="pedestrian tram rail_urban rail rail_electric rail_fast ship" speed="22.22" length="4.54" width="3.75" shape="409.48,747.48 405.91,750.31"/>
  </edge>
  <edge id=":18.17_0" function="internal">
    <lane id=":18.17_0_0" index="0" disallow="pedestrian tram rail_urban rail rail_electric rail_fast ship" speed="22.22" length="0.30" width="3.75" shape="511.99,844.91,20.00 511.80,844.67,20.00"/>
    <lane id=":18.17_0_1" index="1" disallow="pedestrian tram rail_urban rail rail_electric rail_fast ship" speed="22.22" length="0.30" width="3.75" shape="514.90,842.55,20.00 514.72,842.32,20.00"/>
    <lane id=":18.17_0_2" index="2" disallow="pedestrian tram rail_urban rail rail_electric rail_fast ship" speed="22.22" length="0.30" width="3.75" shape="517.82,840.19,20.00 517.64,839.96,20.00"/>
  </edge>
  <edge id=":2_0" function="internal">
    <lane id=":2_0_0" index="0" disallow="pedestrian tram rail_urban rail rail_electric rail_fast ship" speed="19.44" length="47.88" width="3.75" shape="75.75,1023.04 84.92,1013.69 94.63,1002.82 102.85,993.11 107.54,987.27"/>
  </edge>
  <edge id=":2_1" function="internal">
    <lane id=":2_1_0" index="0" disallow="pedestrian tram rail_urban rail rail_electric rail_fast ship" speed="22.22" length="48.05" width="3.75" shape="75.75,1023.04 110.85,990.22"/>
    <lane id=":2_1_1" index="1" disallow="pedestrian tram rail_urban rail rail_electric rail_fast ship" speed="22.22" length="48.05" width="3.75" shape="78.31,1025.78 113.41,992.96"/>
    <lane id=":2_1_2" index="2" disallow="pedestrian tram rail_urban rail rail_electric rail_fast ship" speed="22.22" length="48.05" width="3.75" shape="80.87,1028.52 115.97,995.70"/>
  </edge>
  <edge id=":2.1_0" function="internal">
    <lane id=":2.1_0_0" index="0" disallow="pedestrian tram rail_urban rail rail_electric rail_fast ship" speed="22.22" length="0.30" width="3.75" shape="465.12,714.60 464.88,714.77"/>
    <lane id=":2.1_0_1" index="1" disallow="pedestrian tram rail_urban rail rail_electric rail_fast ship" speed="22.22" length="0.30" width="3.75" shape="462.91,711.56 462.67,711.74"/>
    <lane id=":2.1_0_2" index="2" disallow="pedestrian tram rail_urban rail rail_electric rail_fast ship" speed="22.22" length="0.30" width="3.75" shape="460.71,708.53 460.46,708.71"/>
  </edge>
  <edge id=":23.22_0" function="internal">
    <lane id=":23.22_0_0" index="0" disallow="pedestrian tram rail_urban rail rail_electric rail_fast ship" speed="11.11" length="0.29" width="3.75" shape="401.71,1154.42,7.78 401.43,1154.33,7.77"/>
  </edge>
  <edge id=":26.25_0" function="internal">
    <lane id=":26.25_0_0" index="0" disallow="pedestrian tram rail_urban rail rail_electric rail_fast ship" speed="16.67" length="0.30" width="3.75" shape="215.33,746.13,9.10 215.38,745.84,9.11"/>
  </edge>
  <edge id=":29.28_0" function="internal">
    <lane id=":29.28_0_0" index="0" disallow="pedestrian tram rail_urban rail rail_electric rail_fast ship" speed="9.72" length="0.29" width="3.75" shape="575.50,400.90,9.41 575.79,400.93,9.41"/>
  </edge>
  <edge id=":3_0" function="internal">
    <lane id=":3_0_0" index="0" disallow="pedestrian tram rail_urban rail rail_electric rail_fast ship" speed="15.97" length="62.34" width="3.75" shape="116.47,252.71,20.00 125.66,265.01,19.96 137.84,280.32,19.90 149.05,293.99,19.85 155.39,301.39,19.82"/>
  </edge>
  <edge id=":3_1" function="internal">
    <lane id=":3_1_0" index="0" disallow="pedestrian tram rail_urban rail rail_electric rail_fast ship" speed="22.22" length="62.50" width="3.75" shape="116.47,252.71,20.00 152.03,304.11,20.00"/>
    <lane id=":3_1_1" index="1" disallow="pedestrian tram rail_urban rail rail_electric rail_fast ship" speed="22.22" length="62.50" width="3.75" shape="113.38,254.84,20.00 148.94,306.24,20.00"/>
    <lane id=":3_1_2" index="2" disallow="pedestrian tram rail_urban rail rail_electric rail_fast ship" speed="22.22" length="62.50" width="3.75" shape="110.30,256.97,20.00 145.86,308.38,20.00"/>
  </edge>
  <edge id=":31.30_0" function="internal">
    <lane id=":31.30_0_0" index="0" disallow="pedestrian tram rail_urban rail rail_electric rail_fast ship" speed="22.22" length="0.30" width="3.75" shape="736.88,793.88,9.85 736.85,794.18,9.86"/>
  </edge>
  <edge id=":33.32_0" function="internal">
    <lane id=":33.32_0_0" index="0" disallow="pedestrian tram rail_urban rail rail_electric rail_fast ship" speed="8.33" length="0.28" width="3.75" shape="442.59,843.63,10.77 442.82,843.79,10.82"/>
  </edge>
  <edge id=":35.34_0" function="internal">
    <lane id=":35.34_0_0" index="0" disallow="pedestrian tram rail_urban rail rail_electric rail_fast ship" speed="11.11" length="0.29" width="3.75" shape="112.75,729.16,7.23 112.81,728.88,7.22"/>
  </edge>
  <edge id=":37.36_0" function="internal">
    <lane id=":37.36_0_0" index="0" disallow="pedestrian tram rail_urban rail rail_electric rail_fast ship" speed="13.89" length="0.30" width="3.75" shape="569.62,203.49,13.34 569.60,203.19,13.35"/>
  </edge>
  <edge id=":39.38_0" function="internal">
    <lane id=":39.38_0_0" index="0" disallow="pedestrian tram rail_urban rail rail_electric rail_fast ship" speed="13.89" length="0.29" width="3.75" shape="695.49,607.01,6.42 695.43,607.30,6.41"/>
  </edge>
  <edge id=":4_0" function="internal">
    <lane id=":4_0_0" index="0" disallow="pedestrian tram rail_urban rail rail_electric rail_fast ship" speed="16.67" length="26.19" width="3.75" shape="922.01,1288.59,20.00 915.50,1282.61,19.97 909.65,1278.42,19.94 904.65,1275.58,19.92 900.70,1273.64,19.90"/>
  </edge>
  <edge id=":4_1" function="internal">
    <lane id=":4_1_0" index="0" disallow="pedestrian tram rail_urban rail rail_electric rail_fast ship" speed="22.22" length="26.42" width="3.75" shape="922.01,1288.59,20.00 903.66,1269.57,20.00"/>
    <lane id=":4_1_1" index="1" disallow="pedestrian tram rail_urban rail rail_electric rail_fast ship" speed="22.22" length="26.42" width="3.75" shape="924.71,1285.98,20.00 906.35,1266.97,20.00"/>
    <lane id=":4_1_2" index="2" disallow="pedestrian tram rail_urban rail rail_electric rail_fast ship" speed="22.22" length="26.42" width="3.75" shape="927.40,1283.38,20.00 909.05,1264.37,20.00"/>
  </edge>
  <edge id=":5_0" function="internal">
    <lane id=":5_0_0" index="0" disallow="pedestrian tram rail_urban rail rail_electric rail_fast ship" speed="16.67" length="27.63" width="3.75" shape="121.37,1019.86,0.07 117.03,1021.19,0.06 111.46,1023.67,0.05 104.94,1027.68,0.03 97.71,1033.60"/>
  </edge>
  <edge id=":5_1" function="internal">
    <lane id=":5_1_0" index="0" disallow="pedestrian tram rail_urban rail rail_electric rail_fast ship" speed="22.22" length="26.35" width="3.75" shape="116.95,1015.61 97.71,1033.60"/>
    <lane id=":5_1_1" index="1" disallow="pedestrian tram rail_urban rail rail_electric rail_fast ship" speed="22.22" length="26.35" width="3.75" shape="114.39,1012.87 95.15,1030.87"/>
    <lane id=":5_1_2" index="2" disallow="pedestrian tram rail_urban rail rail_electric rail_fast ship" speed="22.22" length="26.35" width="3.75" shape="111.83,1010.13 92.59,1028.13"/>
  </edge>
  <edge id=":6_0" function="internal">
    <lane id=":6_0_0" index="0" disallow="pedestrian tram rail_urban rail rail_electric rail_fast ship" speed="11.11" length="3.00" width="3.75" shape="711.58,1219.98,14.57 708.65,1219.34,14.48"/>
  </edge>
  <edge id=":6_1" function="internal">
    <lane id=":6_1_0" index="0" disallow="pedestrian tram rail_urban rail rail_electric rail_fast ship" speed="11.11" length="3.00" width="3.75" shape="711.58,1219.98,14.57 708.65,1219.34,14.53"/>
  </edge>
  <edge id=":7_0" function="internal">
    <lane id=":7_0_0" index="0" disallow="pedestrian tram rail_urban rail rail_electric rail_fast ship" speed="19.44" length="63.40" width="3.75" shape="214.04,440.99,20.00 209.26,432.31,20.00 200.19,416.71,20.00 189.93,399.63,20.00 181.54,386.57,20.00"/>
  </edge>
  <edge id=":7_1" function="internal">
    <lane id=":7_1_0" index="0" disallow="pedestrian tram rail_urban rail rail_electric rail_fast ship" speed="22.22" length="62.99" width="3.75" shape="217.53,438.27,20.00 181.54,386.57,20.00"/>
    <lane id=":7_1_1" index="1" disallow="pedestrian tram rail_urban rail rail_electric rail_fast ship" speed="22.22" length="62.99" width="3.75" shape="220.61,436.12,20.00 184.62,384.43,20.00"/>
    <lane id=":7_1_2" index="2" disallow="pedestrian tram rail_urban rail rail_electric rail_fast ship" speed="22.22" length="62.99" width="3.75" shape="223.68,433.98,20.00 187.70,382.29,20.00"/>
  </edge>
  <edge id=":8_0" function="internal">
    <lane id=":8_0_0" index="0" disallow="pedestrian tram rail_urban rail rail_electric rail_fast ship" speed="16.67" length="2.99" width="3.75" shape="201.50,797.71,7.03 202.44,794.87,7.15"/>
  </edge>
  <edge id=":8_1" function="internal">
    <lane id=":8_1_0" index="0" disallow="pedestrian tram rail_urban rail rail_electric rail_fast ship" speed="15.28" length="3.00" width="3.75" shape="201.50,797.71,7.03 202.45,794.86,7.09"/>
  </edge>
  <edge id=":8.7_0" function="internal">
    <lane id=":8.7_0_0" index="0" disallow="pedestrian tram rail_urban rail rail_electric rail_fast ship" speed="22.22" length="0.30" width="3.75" shape="451.49,696.38 451.74,696.20"/>
    <lane id=":8.7_0_1" index="1" disallow="pedestrian tram rail_urban rail rail_electric rail_fast ship" speed="22.22" length="0.30" width="3.75" shape="453.70,699.41 453.94,699.23"/>
    <lane id=":8.7_0_2" index="2" disallow="pedestrian tram rail_urban rail rail_electric rail_fast ship" speed="22.22" length="0.30" width="3.75" shape="455.91,702.44 456.15,702.26"/>
  </edge>
  <edge id=":9_0" function="internal">
    <lane id=":9_0_0" index="0" disallow="pedestrian tram rail_urban rail rail_electric rail_fast ship" speed="15.97" length="85.11" width="3.75" shape="940.21,385.05 952.08,379.06 974.71,367.29 998.90,354.47 1015.46,345.31"/>
  </edge>
  <edge id=":9_1" function="internal">
    <lane id=":9_1_0" index="0" disallow="pedestrian tram rail_urban rail rail_electric rail_fast ship" speed="22.22" length="84.81" width="3.75" shape="942.53,388.60 1015.46,345.31"/>
    <lane id=":9_1_1" index="1" disallow="pedestrian tram rail_urban rail rail_electric rail_fast ship" speed="22.22" length="84.81" width="3.75" shape="944.44,391.82 1017.37,348.53"/>
    <lane id=":9_1_2" index="2" disallow="pedestrian tram rail_urban rail rail_electric rail_fast ship" speed="22.22" length="84.81" width="3.75" shape="946.36,395.04 1019.28,351.76"/>
  </edge>
  <edge id="-0" from="0.begin" to="0" priority="1" type="driving" shape="1102.73,308.52 1101.69,309.16 1100.62,309.82 1099.52,310.50 1098.40,311.19 1097.24,311.90 1096.05,312.63 1094.84,313.37 1093.59,314.13 1092.32,314.91 1091.02,315.70 1089.69,316.51 1088.33,317.33 1086.95,318.17 1085.54,319.02 1084.10,319.89 1082.63,320.78 1081.14,321.67 1079.62,322.59 1078.07,323.52 1076.50,324.47 1074.90,325.42 1073.28,326.40 1071.63,327.39 1069.96,328.39 1068.26,329.41 1066.53,330.44 1064.78,331.49 1063.01,332.55 1061.21,333.62 1059.39,334.71 1057.55,335.81 1055.68,336.92 1053.79,338.05 1051.87,339.19 1049.93,340.35 1047.97,341.52 1045.99,342.70 1043.99,343.89 1041.96,345.10 1039.91,346.32 1037.84,347.55 1035.74,348.79 1033.63,350.05 1031.50,351.32 1029.34,352.60 1027.16,353.89 1024.97,355.20 1022.75,356.51 1020.51,357.84 1018.26,359.18">
    <lane id="-0_0" index="0" disallow="pedestrian tram rail_urban rail rail_electric rail_fast ship" speed="22.22" length="94.60" width="3.75" shape="1107.67,316.49 1106.62,317.14 1105.54,317.80 1104.44,318.49 1103.30,319.18 1102.14,319.90 1100.94,320.63 1099.72,321.38 1098.47,322.14 1097.19,322.92 1095.89,323.71 1094.55,324.52 1093.19,325.35 1091.80,326.19 1090.39,327.04 1088.94,327.92 1087.47,328.80 1085.98,329.70 1084.45,330.62 1082.90,331.55 1081.33,332.50 1079.73,333.46 1078.10,334.44 1076.45,335.43 1074.77,336.43 1073.07,337.45 1071.35,338.49 1069.60,339.53 1067.82,340.59 1066.02,341.67 1064.20,342.76 1062.35,343.86 1060.48,344.98 1058.59,346.11 1056.67,347.25 1054.73,348.40 1052.77,349.57 1050.79,350.75 1048.78,351.95 1046.75,353.16 1044.70,354.38 1042.63,355.61 1040.54,356.85 1038.42,358.11 1036.29,359.38 1034.13,360.66 1031.95,361.95 1029.75,363.26 1027.54,364.57 1026.48,365.20" type="driving"/>
    <lane id="-0_1" index="1" disallow="pedestrian tram rail_urban rail rail_electric rail_fast ship" speed="22.22" length="94.60" width="3.75" shape="1105.69,313.30 1104.65,313.95 1103.58,314.61 1102.47,315.29 1101.34,315.99 1100.18,316.70 1098.99,317.43 1097.77,318.17 1096.52,318.94 1095.24,319.71 1093.94,320.51 1092.61,321.31 1091.25,322.14 1089.86,322.98 1088.45,323.83 1087.00,324.71 1085.54,325.59 1084.04,326.49 1082.52,327.41 1080.97,328.34 1079.40,329.29 1077.80,330.25 1076.17,331.22 1074.52,332.21 1072.85,333.22 1071.15,334.24 1069.42,335.27 1067.67,336.31 1065.90,337.38 1064.10,338.45 1062.28,339.54 1060.43,340.64 1058.56,341.76 1056.67,342.88 1054.75,344.03 1052.81,345.18 1050.85,346.35 1048.87,347.53 1046.86,348.73 1044.83,349.93 1042.78,351.15 1040.71,352.38 1038.62,353.63 1036.50,354.89 1034.37,356.15 1032.21,357.44 1030.04,358.73 1027.84,360.03 1025.62,361.35 1024.57,361.98" type="driving"/>
    <lane id="-0_2" index="2" disallow="pedestrian tram rail_urban rail rail_electric rail_fast ship" speed="22.22" length="94.60" width="3.75" shape="1103.72,310.12 1102.68,310.76 1101.61,311.42 1100.51,312.10 1099.38,312.79 1098.22,313.50 1097.03,314.23 1095.81,314.97 1094.57,315.73 1093.29,316.51 1091.99,317.30 1090.66,318.11 1089.30,318.93 1087.92,319.77 1086.51,320.63 1085.07,321.50 1083.60,322.38 1082.11,323.28 1080.59,324.20 1079.04,325.13 1077.47,326.07 1075.87,327.03 1074.24,328.01 1072.59,329.00 1070.92,330.00 1069.22,331.02 1067.50,332.05 1065.75,333.10 1063.97,334.16 1062.18,335.23 1060.35,336.32 1058.51,337.42 1056.64,338.53 1054.75,339.66 1052.83,340.81 1050.89,341.96 1048.93,343.13 1046.95,344.31 1044.94,345.50 1042.92,346.71 1040.87,347.93 1038.80,349.16 1036.70,350.41 1034.59,351.66 1032.45,352.93 1030.30,354.21 1028.12,355.50 1025.92,356.81 1023.71,358.13 1022.66,358.75" type="driving"/>
  </edge>
  <edge id="-1" from="0" to="2.1" priority="1" type="driving" shape="1018.26,359.18 1016.89,359.99 1015.51,360.81 1014.13,361.63 1012.74,362.46 1011.34,363.29 1009.93,364.12 1008.52,364.96 1007.10,365.80 1005.68,366.65 1004.25,367.50 1002.81,368.35 1001.36,369.21 999.91,370.07 998.45,370.93 996.99,371.80 995.52,372.68 994.04,373.55 992.56,374.43 991.07,375.32 989.57,376.20 988.07,377.10 986.56,377.99 985.04,378.89 983.52,379.79 982.00,380.70 980.47,381.61 978.93,382.52 977.38,383.44 975.83,384.36 974.28,385.28 972.72,386.21 971.15,387.14 969.58,388.07 968.00,389.01 966.41,389.95 964.82,390.89 963.23,391.84 961.63,392.79 960.02,393.74 958.41,394.70 956.80,395.65 955.18,396.62 953.55,397.58 951.92,398.55 950.28,399.52 948.64,400.50 947.00,401.48 945.34,402.46 943.69,403.44 942.03,404.43 940.36,405.42 938.69,406.41 937.02,407.41 935.34,408.41 933.65,409.41 931.96,410.41 930.27,411.42 928.57,412.43 926.87,413.44 925.16,414.46 923.45,415.48 921.74,416.50 920.02,417.52 918.29,418.55 916.57,419.58 914.83,420.61 913.10,421.64 911.36,422.68 909.62,423.71 907.87,424.76 906.12,425.80 904.36,426.85 902.60,427.89 900.84,428.95 899.07,430.00 897.30,431.05 895.53,432.11 893.75,433.17 891.97,434.23 890.19,435.30 888.40,436.37 886.61,437.43 884.82,438.51 883.02,439.58 881.22,440.65 879.42,441.73 877.61,442.81 875.80,443.89 873.99,444.98 872.17,446.06 870.35,447.15 868.53,448.24 866.71,449.33 864.88,450.42 863.05,451.52 861.22,452.62 859.38,453.71 857.55,454.81 855.71,455.92 853.86,457.02 852.02,458.13 850.17,459.23 848.32,460.34 846.47,461.45 844.61,462.57 842.76,463.68 840.90,464.80 839.04,465.91 837.18,467.03 835.31,468.15 833.44,469.27 831.57,470.40 829.70,471.52 827.83,472.65 825.96,473.77 824.08,474.90 822.20,476.03 820.32,477.16 818.44,478.30 816.56,479.43 814.68,480.56 812.79,481.70 810.90,482.84 809.01,483.98 807.12,485.12 805.23,486.26 803.34,487.40 801.45,488.54 799.55,489.69 797.66,490.83 795.76,491.98 793.86,493.12 791.96,494.27 790.06,495.42 788.16,496.57 786.26,497.72 784.36,498.87 782.46,500.02 780.55,501.18 778.65,502.33 776.75,503.49 774.84,504.64 772.93,505.80 771.03,506.95 769.12,508.11 767.21,509.27 765.31,510.43 763.40,511.58 761.49,512.74 759.58,513.90 757.68,515.06 755.77,516.23 753.86,517.39 751.95,518.55 750.04,519.71 748.14,520.87 746.23,522.04 744.32,523.20 742.41,524.36 740.51,525.53 738.60,526.69 736.69,527.86 734.79,529.02 732.88,530.19 730.98,531.35 729.07,532.52 727.17,533.68 725.27,534.85 723.37,536.01 721.46,537.18 719.56,538.34 717.66,539.51 715.76,540.67 713.87,541.84 711.97,543.00 710.07,544.17 708.18,545.33 706.29,546.50 704.39,547.66 702.50,548.83 700.61,549.99 698.72,551.15 696.84,552.32 694.95,553.48 693.07,554.64 691.18,555.81 689.30,556.97 687.42,558.13 685.54,559.29 683.67,560.45 681.79,561.61 679.92,562.77 678.05,563.93 676.18,565.09 674.31,566.25 672.45,567.41 670.59,568.56 668.72,569.72 666.87,570.88 665.01,572.03 663.15,573.19 661.30,574.34 659.45,575.49 657.60,576.64 655.76,577.80 653.92,578.95 652.08,580.10 650.24,581.24 648.40,582.39 646.57,583.54 644.74,584.68 642.91,585.83 641.09,586.97 639.27,588.12 637.45,589.26 635.63,590.40 633.82,591.54 632.01,592.67 630.20,593.81 628.40,594.95 626.60,596.08 624.80,597.22 623.01,598.35 621.22,599.48 619.43,600.61 617.64,601.74 615.86,602.86 614.09,603.99 612.31,605.11 610.54,606.24 608.78,607.36 607.01,608.48 605.25,609.60 603.50,610.71 601.75,611.83 600.00,612.94 598.25,614.05 596.51,615.16 594.78,616.27 593.05,617.38 591.32,618.49 589.59,619.59 587.87,620.69 586.16,621.79 584.45,622.89 582.74,623.99 581.04,625.08 579.34,626.17 577.65,627.26 575.96,628.35 574.27,629.44 572.59,630.53 570.92,631.61 569.25,632.69 567.58,633.77 565.92,634.85 564.26,635.92 562.61,636.99 560.96,638.06 559.32,639.13 557.68,640.20 556.05,641.26 554.43,642.33 552.80,643.39 551.19,644.44 549.58,645.50 547.97,646.55 546.37,647.60 544.78,648.65 543.19,649.69 541.60,650.74 540.02,651.78 538.45,652.82 536.88,653.85 535.32,654.88 533.76,655.92 532.21,656.94 530.67,657.97 529.13,658.99 527.60,660.01 526.07,661.03 524.55,662.04 523.03,663.06 521.53,664.07 520.02,665.07 518.53,666.08 517.04,667.08 515.55,668.07 514.07,669.07 512.60,670.06 511.14,671.05 509.68,672.04 508.23,673.02 506.78,674.00 505.34,674.98 503.91,675.95 502.48,676.93 501.06,677.89 499.65,678.86 498.25,679.82 496.85,680.78 495.46,681.74 494.07,682.69 492.69,683.64 491.32,684.58 489.96,685.53 488.60,686.47 487.25,687.40 485.91,688.33 484.58,689.26 483.25,690.19 481.93,691.11 480.62,692.03 479.31,692.95 478.01,693.86 476.72,694.77 475.44,695.67 474.17,696.57 472.90,697.47 471.64,698.37 470.39,699.26 469.15,700.14 467.91,701.03 466.68,701.91 465.46,702.78 464.25,703.65 463.05,704.52 461.85,705.39 460.66,706.25 459.48,707.10">