<?xml version='1.0' encoding='UTF-8'?>
<!-- generated on 2022-09-25 13:10:56 by Eclipse SUMO netconvert Version 1.13.0
<configuration xmlns:xsi="http://www.w3.org/2001/XMLSchema-instance" xsi:noNamespaceSchemaLocation="http://sumo.dlr.de/xsd/netconvertConfiguration.xsd">

    <input>
        <opendrive-files value="map_new_new\5\17\17.xodr"/>
    </input>

    <output>
        <output-file value="C:\Users\LinGe\AppData\Local\Temp\tmpbq5s9iny\17.net.xml"/>
    </output>

    <processing>
        <geometry.max-grade.fix value="false"/>
    </processing>

    <tls_building>
        <tls.left-green.time value="0"/>
    </tls_building>

    <junctions>
        <rectangular-lane-cut value="true"/>
    </junctions>

    <report>
        <aggregate-warnings value="5"/>
    </report>

</configuration>
-->
<net xmlns:xsi="http://www.w3.org/2001/XMLSchema-instance" version="1.9" junctionCornerDetail="5" rectangularLaneCut="true" limitTurnSpeed="5.50" xsi:noNamespaceSchemaLocation="http://sumo.dlr.de/xsd/net_file.xsd">
  <location netOffset="1.56,101.26" convBoundary="0.00,0.00,1102.73,1302.51" origBoundary="-1.56,-101.26,1101.18,1201.26" projParameter="!"/>
  <type id="bidirectional" priority="1" speed="1.39" disallow="pedestrian tram rail_urban rail rail_electric rail_fast ship" width="3.65"/>
  <type id="border" priority="0" speed="1.39" disallow="all" discard="1" width="0.10"/>
  <type id="driving" priority="1" speed="13.89" disallow="pedestrian tram rail_urban rail rail_electric rail_fast ship" width="3.65"/>
  <type id="entry" priority="1" speed="22.22" disallow="pedestrian tram rail_urban rail rail_electric rail_fast ship" width="3.65"/>
  <type id="exit" priority="1" speed="22.22" disallow="pedestrian tram rail_urban rail rail_electric rail_fast ship" width="3.65"/>
  <type id="median" priority="0" speed="1.39" disallow="all" discard="1" width="0.10"/>
  <type id="mwyEntry" priority="1" speed="22.22" allow="private emergency authority army vip passenger hov taxi bus coach delivery truck trailer motorcycle evehicle custom1 custom2" width="3.65"/>
  <type id="mwyExit" priority="1" speed="22.22" allow="private emergency authority army vip passenger hov taxi bus coach delivery truck trailer motorcycle evehicle custom1 custom2" width="3.65"/>
  <type id="none" priority="0" speed="1.39" disallow="all" discard="1" width="1.00"/>
  <type id="offRamp" priority="1" speed="22.22" allow="private emergency authority army vip passenger hov taxi bus coach delivery truck trailer motorcycle evehicle custom1 custom2" width="3.65"/>
  <type id="onRamp" priority="1" speed="22.22" allow="private emergency authority army vip passenger hov taxi bus coach delivery truck trailer motorcycle evehicle custom1 custom2" width="3.65"/>
  <type id="parking" priority="1" speed="1.39" disallow="pedestrian tram rail_urban rail rail_electric rail_fast ship" width="2.50"/>
  <type id="rail" priority="3" speed="33.33" allow="rail_urban rail rail_electric rail_fast" width="3.65"/>
  <type id="restricted" priority="0" speed="13.89" disallow="all" width="3.65"/>
  <type id="roadWorks" priority="0" speed="1.39" allow="authority" width="3.65"/>
  <type id="shoulder" priority="0" speed="1.39" disallow="all" discard="1" width="1.00"/>
  <type id="special1" priority="1" speed="22.22" allow="custom1" discard="1" width="3.65"/>
  <type id="special2" priority="1" speed="22.22" allow="custom2" discard="1" width="3.65"/>
  <type id="special3" priority="1" speed="22.22" allow="custom1 custom2" discard="1" width="3.65"/>
  <type id="stop" priority="1" speed="13.89" disallow="pedestrian tram rail_urban rail rail_electric rail_fast ship" width="3.65"/>
  <type id="tram" priority="2" speed="13.89" allow="tram" width="3.65"/>
  <edge id=":0_0" function="internal">
    <lane id=":0_0_0" index="0" disallow="pedestrian tram rail_urban rail rail_electric rail_fast ship" speed="19.44" length="41.28" width="3.75" shape="954.47,301.83 944.38,308.43,0.06 934.50,315.78,0.11 926.38,322.37,0.16 921.58,326.68,0.19"/>
  </edge>
  <edge id=":0_1" function="internal">
    <lane id=":0_1_0" index="0" disallow="pedestrian tram rail_urban rail rail_electric rail_fast ship" speed="22.22" length="41.55" width="3.75" shape="954.47,301.83 918.72,322.99"/>
    <lane id=":0_1_1" index="1" disallow="pedestrian tram rail_urban rail rail_electric rail_fast ship" speed="22.22" length="41.55" width="3.75" shape="952.56,298.61 916.81,319.76"/>
    <lane id=":0_1_2" index="2" disallow="pedestrian tram rail_urban rail rail_electric rail_fast ship" speed="22.22" length="41.55" width="3.75" shape="950.66,295.38 914.89,316.54"/>
  </edge>
  <edge id=":1_0" function="internal">
    <lane id=":1_0_0" index="0" disallow="pedestrian tram rail_urban rail rail_electric rail_fast ship" speed="19.44" length="37.64" width="3.75" shape="96.31,898.87 104.34,890.66 111.50,882.24 117.13,874.95 120.56,870.15"/>
  </edge>
  <edge id=":1_1" function="internal">
    <lane id=":1_1_0" index="0" disallow="pedestrian tram rail_urban rail rail_electric rail_fast ship" speed="22.22" length="37.83" width="3.75" shape="96.31,898.87 124.06,873.15"/>
    <lane id=":1_1_1" index="1" disallow="pedestrian tram rail_urban rail rail_electric rail_fast ship" speed="22.22" length="37.83" width="3.75" shape="98.86,901.62 126.61,875.91"/>
    <lane id=":1_1_2" index="2" disallow="pedestrian tram rail_urban rail rail_electric rail_fast ship" speed="22.22" length="37.83" width="3.75" shape="101.41,904.36 129.16,878.66"/>
  </edge>
  <edge id=":10_0" function="internal">
    <lane id=":10_0_0" index="0" disallow="pedestrian tram rail_urban rail rail_electric rail_fast ship" speed="19.44" length="47.51" width="3.75" shape="956.36,1126.06,19.83 959.46,1132.81,19.86 964.99,1144.13,19.90 971.69,1156.93,19.95 978.28,1168.18,20.00"/>
  </edge>
  <edge id=":10_1" function="internal">
    <lane id=":10_1_0" index="0" disallow="pedestrian tram rail_urban rail rail_electric rail_fast ship" speed="22.22" length="47.01" width="3.75" shape="952.71,1128.73,20.00 978.28,1168.18,20.00"/>
    <lane id=":10_1_1" index="1" disallow="pedestrian tram rail_urban rail rail_electric rail_fast ship" speed="22.22" length="47.01" width="3.75" shape="949.56,1130.77,20.00 975.14,1170.22,20.00"/>
    <lane id=":10_1_2" index="2" disallow="pedestrian tram rail_urban rail rail_electric rail_fast ship" speed="22.22" length="47.01" width="3.75" shape="946.42,1132.81,20.00 971.99,1172.25,20.00"/>
  </edge>
  <edge id=":11_0" function="internal">
    <lane id=":11_0_0" index="0" disallow="pedestrian tram rail_urban rail rail_electric rail_fast ship" speed="16.67" length="3.00" width="3.75" shape="872.16,612.66,7.94 872.40,615.64,8.00"/>
  </edge>
  <edge id=":11_1" function="internal">
    <lane id=":11_1_0" index="0" disallow="pedestrian tram rail_urban rail rail_electric rail_fast ship" speed="15.28" length="3.00" width="3.75" shape="872.16,612.66,7.94 872.40,615.65,7.97"/>
  </edge>
  <edge id=":12_0" function="internal">
    <lane id=":12_0_0" index="0" disallow="pedestrian tram rail_urban rail rail_electric rail_fast ship" speed="9.72" length="64.34" width="3.75" shape="745.82,334.06,4.12 808.32,318.79,4.08"/>
  </edge>
  <edge id=":12_1" function="internal">
    <lane id=":12_1_0" index="0" disallow="pedestrian tram rail_urban rail rail_electric rail_fast ship" speed="9.03" length="64.17" width="3.75" shape="747.03,337.81,4.12 757.90,334.27,4.12 777.61,328.10,4.10 797.35,322.04,4.09 808.32,318.79,4.08"/>
  </edge>
  <edge id=":13_0" function="internal">
    <lane id=":13_0_0" index="0" disallow="pedestrian tram rail_urban rail rail_electric rail_fast ship" speed="16.67" length="59.90" width="3.75" shape="884.96,789.23,12.31 885.75,799.96,12.47 887.39,819.07,12.75 889.13,838.18,13.03 890.20,848.89,13.19"/>
  </edge>
  <edge id=":13_1" function="internal">
    <lane id=":13_1_0" index="0" disallow="pedestrian tram rail_urban rail rail_electric rail_fast ship" speed="15.28" length="63.97" width="3.75" shape="880.92,785.59,13.08 890.20,848.89,13.19"/>
  </edge>
  <edge id=":14_0" function="internal">
    <lane id=":14_0_0" index="0" disallow="pedestrian tram rail_urban rail rail_electric rail_fast ship" speed="9.72" length="47.76" width="3.75" shape="376.13,747.53,4.25 367.66,750.17,4.24 353.40,754.87,4.22 339.18,759.68,4.21 330.83,762.65,4.20"/>
  </edge>
  <edge id=":14_1" function="internal">
    <lane id=":14_1_0" index="0" disallow="pedestrian tram rail_urban rail rail_electric rail_fast ship" speed="9.03" length="47.38" width="3.75" shape="374.33,743.88,4.41 330.83,762.65,4.20"/>
  </edge>
  <edge id=":14.13_0" function="internal">
    <lane id=":14.13_0_0" index="0" disallow="pedestrian tram rail_urban rail rail_electric rail_fast ship" speed="22.22" length="0.30" width="3.75" shape="644.61,723.27,20.00 644.43,723.04,20.00"/>
    <lane id=":14.13_0_1" index="1" disallow="pedestrian tram rail_urban rail rail_electric rail_fast ship" speed="22.22" length="0.30" width="3.75" shape="647.53,720.91,20.00 647.34,720.68,20.00"/>
    <lane id=":14.13_0_2" index="2" disallow="pedestrian tram rail_urban rail rail_electric rail_fast ship" speed="22.22" length="0.30" width="3.75" shape="650.45,718.56,20.00 650.26,718.32,20.00"/>
  </edge>
  <edge id=":15_0" function="internal">
    <lane id=":15_0_0" index="0" disallow="pedestrian tram rail_urban rail rail_electric rail_fast ship" speed="16.67" length="72.28" width="3.75" shape="211.50,381.22,14.48 208.54,368.87,14.49 202.89,346.12,14.51 197.16,323.40,14.52 193.94,311.11,14.53"/>
  </edge>
  <edge id=":15_1" function="internal">
    <lane id=":15_1_0" index="0" disallow="pedestrian tram rail_urban rail rail_electric rail_fast ship" speed="15.28" length="72.01" width="3.75" shape="215.21,379.91,14.44 193.94,311.11,14.53"/>
  </edge>
  <edge id=":18.17_0" function="internal">
    <lane id=":18.17_0_0" index="0" disallow="pedestrian tram rail_urban rail rail_electric rail_fast ship" speed="9.72" length="0.29" width="3.75" shape="463.48,740.94,8.53 463.20,740.89,8.52"/>
  </edge>
  <edge id=":2_0" function="internal">
    <lane id=":2_0_0" index="0" disallow="pedestrian tram rail_urban rail rail_electric rail_fast ship" speed="15.97" length="53.16" width="3.75" shape="162.97,157.86,20.00 172.87,167.65,20.00 184.97,178.71,20.00 195.88,188.30,20.00 202.24,193.65,20.00"/>
  </edge>
  <edge id=":2_1" function="internal">
    <lane id=":2_1_0" index="0" disallow="pedestrian tram rail_urban rail rail_electric rail_fast ship" speed="22.22" length="53.29" width="3.75" shape="162.97,157.86,20.00 199.31,196.85,20.00"/>
    <lane id=":2_1_1" index="1" disallow="pedestrian tram rail_urban rail rail_electric rail_fast ship" speed="22.22" length="53.29" width="3.75" shape="160.22,160.42,20.00 196.57,199.40,20.00"/>
    <lane id=":2_1_2" index="2" disallow="pedestrian tram rail_urban rail rail_electric rail_fast ship" speed="22.22" length="53.29" width="3.75" shape="157.48,162.98,20.00 193.82,201.96,20.00"/>
  </edge>
  <edge id=":2.1_0" function="internal">
    <lane id=":2.1_0_0" index="0" disallow="pedestrian tram rail_urban rail rail_electric rail_fast ship" speed="22.22" length="0.30" width="3.75" shape="477.69,599.85 477.45,600.03"/>
    <lane id=":2.1_0_1" index="1" disallow="pedestrian tram rail_urban rail rail_electric rail_fast ship" speed="22.22" length="0.30" width="3.75" shape="475.49,596.82 475.25,596.99"/>
    <lane id=":2.1_0_2" index="2" disallow="pedestrian tram rail_urban rail rail_electric rail_fast ship" speed="22.22" length="0.30" width="3.75" shape="473.28,593.78 473.04,593.96"/>
  </edge>
  <edge id=":22.21_0" function="internal">
    <lane id=":22.21_0_0" index="0" disallow="pedestrian tram rail_urban rail rail_electric rail_fast ship" speed="16.67" length="0.30" width="3.75" shape="228.62,536.29,9.06 228.62,536.00,9.06"/>
  </edge>
  <edge id=":26.25_0" function="internal">
    <lane id=":26.25_0_0" index="0" disallow="pedestrian tram rail_urban rail rail_electric rail_fast ship" speed="9.72" length="0.29" width="3.75" shape="536.01,368.16,10.20 536.29,368.19,10.19"/>
  </edge>
  <edge id=":3_0" function="internal">
    <lane id=":3_0_0" index="0" disallow="pedestrian tram rail_urban rail rail_electric rail_fast ship" speed="15.97" length="41.60" width="3.75" shape="861.64,1031.07,20.00 854.50,1021.30,19.95 846.59,1011.73,19.89 839.56,1003.84,19.85 835.10,999.10,19.82"/>
  </edge>
  <edge id=":3_1" function="internal">
    <lane id=":3_1_0" index="0" disallow="pedestrian tram rail_urban rail rail_electric rail_fast ship" speed="22.22" length="41.72" width="3.75" shape="861.64,1031.07,20.00 838.59,996.32,20.00"/>
    <lane id=":3_1_1" index="1" disallow="pedestrian tram rail_urban rail rail_electric rail_fast ship" speed="22.22" length="41.72" width="3.75" shape="864.77,1029.01,20.00 841.72,994.24,20.00"/>
    <lane id=":3_1_2" index="2" disallow="pedestrian tram rail_urban rail rail_electric rail_fast ship" speed="22.22" length="41.72" width="3.75" shape="867.90,1026.94,20.00 844.84,992.16,20.00"/>
  </edge>
  <edge id=":30.29_0" function="internal">
    <lane id=":30.29_0_0" index="0" disallow="pedestrian tram rail_urban rail rail_electric rail_fast ship" speed="16.67" length="4.17" width="3.75" shape="885.07,793.11,11.47 884.96,789.03,12.31"/>
  </edge>
  <edge id=":33.32_0" function="internal">
    <lane id=":33.32_0_0" index="0" disallow="pedestrian tram rail_urban rail rail_electric rail_fast ship" speed="8.33" length="0.29" width="3.75" shape="555.29,516.80,8.82 555.38,516.52,8.82"/>
  </edge>
  <edge id=":35.34_0" function="internal">
    <lane id=":35.34_0_0" index="0" disallow="pedestrian tram rail_urban rail rail_electric rail_fast ship" speed="13.89" length="0.30" width="3.75" shape="599.82,355.10,8.91 600.12,355.15,8.91"/>
  </edge>
  <edge id=":37.36_0" function="internal">
    <lane id=":37.36_0_0" index="0" disallow="pedestrian tram rail_urban rail rail_electric rail_fast ship" speed="8.33" length="0.28" width="3.75" shape="539.44,556.56,9.54 539.43,556.85,9.53"/>
  </edge>
  <edge id=":39.38_0" function="internal">
    <lane id=":39.38_0_0" index="0" disallow="pedestrian tram rail_urban rail rail_electric rail_fast ship" speed="13.89" length="0.30" width="3.75" shape="573.59,977.34,10.91 573.32,977.21,10.91"/>
  </edge>
  <edge id=":4_0" function="internal">
    <lane id=":4_0_0" index="0" disallow="pedestrian tram rail_urban rail rail_electric rail_fast ship" speed="15.97" length="89.63" width="3.75" shape="206.37,834.07,0.00 195.48,842.88,0.00 174.62,860.12,0.00 152.44,878.70,0.00 137.62,891.57"/>
  </edge>
  <edge id=":4_1" function="internal">
    <lane id=":4_1_0" index="0" disallow="pedestrian tram rail_urban rail rail_electric rail_fast ship" speed="22.22" length="89.38" width="3.75" shape="203.42,831.12 137.62,891.57"/>
    <lane id=":4_1_1" index="1" disallow="pedestrian tram rail_urban rail rail_electric rail_fast ship" speed="22.22" length="89.38" width="3.75" shape="200.89,828.35 135.07,888.81"/>
    <lane id=":4_1_2" index="2" disallow="pedestrian tram rail_urban rail rail_electric rail_fast ship" speed="22.22" length="89.38" width="3.75" shape="198.37,825.58 132.53,886.06"/>
  </edge>
  <edge id=":5_0" function="internal">
    <lane id=":5_0_0" index="0" disallow="pedestrian tram rail_urban rail rail_electric rail_fast ship" speed="9.72" length="23.53" width="3.75" shape="641.75,843.91,13.70 622.38,830.55,13.66"/>
  </edge>
  <edge id=":5_1" function="internal">
    <lane id=":5_1_0" index="0" disallow="pedestrian tram rail_urban rail rail_electric rail_fast ship" speed="9.03" length="24.44" width="3.75" shape="641.75,843.91,13.70 637.75,840.56,13.69 632.73,835.69,13.67 627.92,830.59,13.65 624.58,826.58,13.63"/>
  </edge>
  <edge id=":6_0" function="internal">
    <lane id=":6_0_0" index="0" disallow="pedestrian tram rail_urban rail rail_electric rail_fast ship" speed="19.44" length="64.59" width="3.75" shape="117.44,148.77,20.00 111.29,140.76,20.00 99.80,126.31,20.00 86.93,110.58,20.00 76.64,98.71,20.00"/>
  </edge>
  <edge id=":6_1" function="internal">
    <lane id=":6_1_0" index="0" disallow="pedestrian tram rail_urban rail rail_electric rail_fast ship" speed="22.22" length="64.22" width="3.75" shape="120.47,145.65,20.00 76.64,98.71,20.00"/>
    <lane id=":6_1_1" index="1" disallow="pedestrian tram rail_urban rail rail_electric rail_fast ship" speed="22.22" length="64.22" width="3.75" shape="123.21,143.09,20.00 79.38,96.15,20.00"/>
    <lane id=":6_1_2" index="2" disallow="pedestrian tram rail_urban rail rail_electric rail_fast ship" speed="22.22" length="64.22" width="3.75" shape="125.95,140.53,20.00 82.12,93.59,20.00"/>
  </edge>
  <edge id=":6.5_0" function="internal">
    <lane id=":6.5_0_0" index="0" disallow="pedestrian tram rail_urban rail rail_electric rail_fast ship" speed="22.22" length="0.30" width="3.75" shape="464.07,581.63 464.31,581.45"/>
    <lane id=":6.5_0_1" index="1" disallow="pedestrian tram rail_urban rail rail_electric rail_fast ship" speed="22.22" length="0.30" width="3.75" shape="466.28,584.66 466.52,584.48"/>
    <lane id=":6.5_0_2" index="2" disallow="pedestrian tram rail_urban rail rail_electric rail_fast ship" speed="22.22" length="0.30" width="3.75" shape="468.48,587.69 468.72,587.52"/>
  </edge>
  <edge id=":7_0" function="internal">
    <lane id=":7_0_0" index="0" disallow="pedestrian tram rail_urban rail rail_electric rail_fast ship" speed="16.67" length="3.00" width="3.75" shape="189.36,721.82,4.74 190.33,718.99,4.83"/>
  </edge>
  <edge id=":7_1" function="internal">
    <lane id=":7_1_0" index="0" disallow="pedestrian tram rail_urban rail rail_electric rail_fast ship" speed="15.28" length="3.00" width="3.75" shape="189.36,721.82,4.74 190.34,718.99,4.79"/>
  </edge>
  <edge id=":8_0" function="internal">
    <lane id=":8_0_0" index="0" disallow="pedestrian tram rail_urban rail rail_electric rail_fast ship" speed="15.97" length="39.54" width="3.75" shape="934.87,281.69,0.00 940.68,279.56,0.00 949.84,275.92,0.00 960.54,271.17,0.00 970.97,265.69"/>
  </edge>
  <edge id=":8_1" function="internal">
    <lane id=":8_1_0" index="0" disallow="pedestrian tram rail_urban rail rail_electric rail_fast ship" speed="22.22" length="38.97" width="3.75" shape="937.42,285.51 970.97,265.69"/>
    <lane id=":8_1_1" index="1" disallow="pedestrian tram rail_urban rail rail_electric rail_fast ship" speed="22.22" length="38.97" width="3.75" shape="939.32,288.74 972.88,268.92"/>
    <lane id=":8_1_2" index="2" disallow="pedestrian tram rail_urban rail rail_electric rail_fast ship" speed="22.22" length="38.97" width="3.75" shape="941.23,291.97 974.78,272.15"/>
  </edge>
  <edge id=":9_0" function="internal">
    <lane id=":9_0_0" index="0" disallow="pedestrian tram rail_urban rail rail_electric rail_fast ship" speed="9.72" length="33.17" width="3.75" shape="359.02,292.01,15.17 388.47,307.27,15.13"/>
  </edge>
  <edge id=":9_1" function="internal">
    <lane id=":9_1_0" index="0" disallow="pedestrian tram rail_urban rail rail_electric rail_fast ship" speed="9.03" length="33.76" width="3.75" shape="359.02,292.01,15.17 364.68,295.54,15.15 373.13,301.26,15.11 381.47,307.14,15.07 386.81,311.15,15.05"/>
  </edge>
  <edge id=":9.10_0" function="internal">
    <lane id=":9.10_0_0" index="0" disallow="pedestrian tram rail_urban rail rail_electric rail_fast ship" speed="22.22" length="0.30" width="3.75" shape="662.12,708.74,20.00 662.32,708.98,20.00"/>
    <lane id=":9.10_0_1" index="1" disallow="pedestrian tram rail_urban rail rail_electric rail_fast ship" speed="22.22" length="0.30" width="3.75" shape="659.21,711.10,20.00 659.40,711.33,20.00"/>
    <lane id=":9.10_0_2" index="2" disallow="pedestrian tram rail_urban rail rail_electric rail_fast ship" speed="22.22" length="0.30" width="3.75" shape="656.29,713.46,20.00 656.48,713.69,20.00"/>
  </edge>
  <edge id="-0" from="0.begin" to="0" priority="1" type="driving" shape="1102.73,202.87 1101.82,203.43 1100.89,204.01 1099.94,204.59 1098.96,205.19 1097.97,205.80 1096.95,206.42 1095.91,207.06 1094.85,207.70 1093.77,208.36 1092.67,209.03 1091.54,209.71 1090.40,210.40 1089.23,211.10 1088.05,211.82 1086.84,212.55 1085.62,213.28 1084.37,214.03 1083.11,214.79 1081.82,215.57 1080.52,216.35 1079.19,217.14 1077.85,217.95 1076.49,218.76 1075.11,219.59 1073.70,220.43 1072.29,221.27 1070.85,222.13 1069.39,223.00 1067.92,223.88 1066.42,224.77 1064.91,225.67 1063.38,226.58 1061.83,227.50 1060.27,228.43 1058.69,229.37 1057.09,230.32 1055.47,231.28 1053.84,232.25 1052.18,233.23 1050.52,234.21 1048.83,235.21 1047.13,236.22 1045.41,237.24 1043.68,238.27 1041.93,239.30 1040.16,240.35 1038.38,241.40 1036.58,242.47 1034.77,243.54 1032.94,244.62 1031.09,245.71 1029.23,246.81 1027.36,247.92 1025.47,249.03 1023.56,250.16 1021.64,251.29 1019.71,252.44 1017.76,253.59 1015.80,254.75 1013.82,255.91 1011.83,257.09 1009.82,258.27 1007.80,259.46 1005.77,260.66 1003.73,261.87 1001.67,263.09 999.59,264.31 997.51,265.54 995.41,266.78 993.30,268.02 991.18,269.28 989.04,270.54 986.89,271.81 984.73,273.08 982.56,274.36 980.37,275.65 978.17,276.95 975.96,278.25 973.74,279.56 971.51,280.88 969.27,282.21 967.02,283.54 964.75,284.87 962.47,286.22 960.19,287.57 957.89,288.93 955.58,290.29 953.26,291.66 950.94,293.03 948.60,294.42 946.25,295.80">
    <lane id="-0_0" index="0" disallow="pedestrian tram rail_urban rail rail_electric rail_fast ship" speed="22.22" length="178.09" width="3.75" shape="1107.65,210.85 1106.74,211.42 1105.80,211.99 1104.84,212.58 1103.86,213.19 1102.86,213.80 1101.83,214.42 1100.79,215.06 1099.72,215.71 1098.63,216.37 1097.53,217.04 1096.40,217.73 1095.25,218.42 1094.08,219.13 1092.89,219.85 1091.68,220.58 1090.45,221.32 1089.20,222.07 1087.93,222.83 1086.65,223.60 1085.34,224.39 1084.01,225.18 1082.66,225.99 1081.30,226.81 1079.92,227.64 1078.51,228.47 1077.09,229.32 1075.65,230.18 1074.19,231.05 1072.71,231.93 1071.22,232.82 1069.71,233.72 1068.17,234.63 1066.63,235.56 1065.06,236.49 1063.47,237.43 1061.87,238.38 1060.25,239.34 1058.62,240.31 1056.97,241.29 1055.30,242.28 1053.61,243.28 1051.91,244.29 1050.19,245.31 1048.45,246.33 1046.70,247.37 1044.94,248.42 1043.15,249.47 1041.35,250.54 1039.54,251.61 1037.71,252.69 1035.86,253.78 1034.00,254.88 1032.13,255.99 1030.24,257.11 1028.33,258.23 1026.41,259.37 1024.47,260.51 1022.53,261.66 1020.56,262.82 1018.58,263.99 1016.59,265.16 1014.59,266.35 1012.57,267.54 1010.54,268.74 1008.49,269.94 1006.43,271.16 1004.36,272.38 1002.27,273.61 1000.17,274.85 998.06,276.10 995.94,277.35 993.80,278.61 991.65,279.88 989.49,281.15 987.32,282.44 985.14,283.73 982.94,285.02 980.73,286.33 978.51,287.64 976.28,288.95 974.04,290.28 971.78,291.61 969.52,292.95 967.24,294.29 964.96,295.64 962.66,297.00 960.35,298.36 958.03,299.73 955.70,301.11 954.47,301.83" type="driving"/>
    <lane id="-0_1" index="1" disallow="pedestrian tram rail_urban rail rail_electric rail_fast ship" speed="22.22" length="178.09" width="3.75" shape="1105.69,207.66 1104.77,208.22 1103.84,208.80 1102.88,209.39 1101.90,209.99 1100.90,210.60 1099.88,211.22 1098.84,211.86 1097.77,212.51 1096.69,213.17 1095.58,213.84 1094.46,214.52 1093.31,215.21 1092.14,215.92 1090.95,216.64 1089.75,217.36 1088.52,218.10 1087.27,218.85 1086.00,219.62 1084.72,220.39 1083.41,221.17 1082.08,221.97 1080.74,222.77 1079.37,223.59 1077.99,224.42 1076.59,225.25 1075.17,226.10 1073.73,226.96 1072.27,227.83 1070.79,228.71 1069.30,229.60 1067.79,230.50 1066.26,231.41 1064.71,232.33 1063.14,233.26 1061.56,234.20 1059.96,235.15 1058.34,236.11 1056.71,237.08 1055.05,238.06 1053.38,239.05 1051.70,240.05 1050.00,241.06 1048.28,242.08 1046.54,243.11 1044.79,244.14 1043.03,245.19 1041.24,246.24 1039.44,247.31 1037.63,248.38 1035.80,249.46 1033.95,250.55 1032.09,251.65 1030.22,252.76 1028.33,253.88 1026.42,255.00 1024.50,256.14 1022.57,257.28 1020.62,258.43 1018.66,259.59 1016.68,260.76 1014.69,261.93 1012.68,263.12 1010.66,264.31 1008.63,265.51 1006.58,266.71 1004.53,267.93 1002.45,269.15 1000.37,270.38 998.27,271.62 996.16,272.87 994.03,274.12 991.90,275.38 989.75,276.65 987.59,277.92 985.41,279.21 983.23,280.50 981.03,281.79 978.82,283.10 976.60,284.41 974.37,285.72 972.13,287.05 969.88,288.38 967.61,289.72 965.33,291.06 963.05,292.41 960.75,293.77 958.44,295.13 956.13,296.50 953.80,297.88 952.56,298.61" type="driving"/>
    <lane id="-0_2" index="2" disallow="pedestrian tram rail_urban rail rail_electric rail_fast ship" speed="22.22" length="178.09" width="3.75" shape="1103.72,204.47 1102.81,205.03 1101.87,205.61 1100.92,206.19 1099.94,206.79 1098.95,207.40 1097.93,208.02 1096.89,208.66 1095.82,209.30 1094.74,209.96 1093.64,210.63 1092.51,211.31 1091.37,212.00 1090.20,212.71 1089.02,213.42 1087.81,214.15 1086.58,214.89 1085.34,215.64 1084.07,216.40 1082.79,217.17 1081.48,217.96 1080.16,218.75 1078.81,219.56 1077.45,220.37 1076.07,221.20 1074.67,222.03 1073.25,222.88 1071.81,223.74 1070.35,224.61 1068.88,225.49 1067.38,226.38 1065.87,227.28 1064.34,228.19 1062.79,229.11 1061.23,230.04 1059.64,230.98 1058.04,231.93 1056.43,232.89 1054.79,233.86 1053.14,234.84 1051.47,235.83 1049.79,236.83 1048.09,237.83 1046.37,238.85 1044.63,239.88 1042.88,240.92 1041.12,241.96 1039.33,243.02 1037.53,244.08 1035.72,245.15 1033.89,246.23 1032.05,247.32 1030.19,248.42 1028.31,249.53 1026.42,250.65 1024.52,251.77 1022.60,252.91 1020.66,254.05 1018.71,255.20 1016.75,256.36 1014.77,257.53 1012.78,258.70 1010.78,259.89 1008.76,261.08 1006.72,262.28 1004.68,263.48 1002.62,264.70 1000.55,265.92 998.46,267.15 996.36,268.39 994.25,269.64 992.13,270.89 989.99,272.15 987.84,273.42 985.68,274.70 983.51,275.98 981.32,277.27 979.13,278.56 976.92,279.87 974.70,281.18 972.47,282.50 970.22,283.82 967.97,285.15 965.70,286.49 963.43,287.83 961.14,289.18 958.84,290.54 956.54,291.90 954.22,293.27 951.89,294.65 950.66,295.38" type="driving"/>
  </edge>
  <edge id="-1" from="0" to="2.1" priority="1" type="driving" shape="946.25,295.80 944.62,296.77 942.99,297.73 941.35,298.70 939.71,299.67 938.07,300.64 936.42,301.62 934.77,302.59 933.11,303.57 931.45,304.56 929.78,305.54 928.11,306.53 926.43,307.52 924.75,308.52 923.07,309.52 921.38,310.51 919.69,311.52 918.00,312.52 916.30,313.53 914.59,314.54 912.89,315.55 911.18,316.56 909.46,317.58 907.74,318.60 906.02,319.62 904.30,320.64 902.57,321.67 900.84,322.69 899.10,323.72 897.36,324.76 895.62,325.79 893.87,326.83 892.12,327.87 890.37,328.91 888.62,329.95 886.86,330.99 885.09,332.04 883.33,333.09 881.56,334.14 879.79,335.19 878.02,336.25 876.24,337.31 874.46,338.37 872.68,339.43 870.89,340.49 869.11,341.55 867.32,342.62 865.52,343.69 863.73,344.76 861.93,345.83 860.13,346.90 858.32,347.98 856.52,349.05 854.71,350.13 852.90,351.21 851.09,352.29 849.27,353.38 847.46,354.46 845.64,355.55 843.82,356.64 841.99,357.73 840.17,358.82 838.34,359.91 836.51,361.00 834.68,362.10 832.85,363.20 831.02,364.29 829.18,365.39 827.34,366.49 825.50,367.59 823.66,368.70 821.82,369.80 819.98,370.91 818.13,372.01 816.28,373.12 814.44,374.23 812.59,375.34 810.74,376.45 808.88,377.57 807.03,378.68 805.18,379.79 803.32,380.91 801.47,382.03 799.61,383.14 797.75,384.26 795.89,385.38 794.03,386.50 792.17,387.62 790.31,388.74 788.45,389.87 786.58,390.99 784.72,392.12 782.85,393.24 780.99,394.37 779.12,395.49 777.26,396.62 775.39,397.75 773.53,398.88 771.66,400.01 769.79,401.14 767.92,402.27 766.06,403.40 764.19,404.53 762.32,405.66 760.45,406.79 758.58,407.93 756.72,409.06 754.85,410.19 752.98,411.33 751.11,412.46 749.25,413.60 747.38,414.73 745.51,415.87 743.64,417.01 741.78,418.14 739.91,419.28 738.05,420.41 736.18,421.55 734.32,422.69 732.46,423.82 730.59,424.96 728.73,426.10 726.87,427.24 725.01,428.37 723.15,429.51 721.29,430.65 719.43,431.79 717.57,432.92 715.72,434.06 713.86,435.20 712.01,436.33 710.16,437.47 708.30,438.61 706.45,439.74 704.60,440.88 702.76,442.02 700.91,443.15 699.07,444.29 697.22,445.42 695.38,446.56 693.54,447.69 691.70,448.83 689.86,449.96 688.03,451.10 686.19,452.23 684.36,453.36 682.53,454.49 680.70,455.62 678.88,456.76 677.05,457.89 675.23,459.02 673.41,460.14 671.59,461.27 669.78,462.40 667.96,463.53 666.15,464.66 664.34,465.78 662.53,466.91 660.73,468.03 658.92,469.15 657.12,470.28 655.33,471.40 653.53,472.52 651.74,473.64 649.95,474.76 648.16,475.88 646.38,477.00 644.60,478.11 642.82,479.23 641.04,480.34 639.27,481.46 637.50,482.57 635.73,483.68 633.97,484.79 632.20,485.90 630.45,487.01 628.69,488.11 626.94,489.22 625.19,490.32 623.45,491.43 621.70,492.53 619.97,493.63 618.23,494.73 616.50,495.83 614.77,496.92 613.05,498.02 611.33,499.11 609.61,500.21 607.90,501.30 606.19,502.39 604.48,503.47 602.78,504.56 601.08,505.65 599.38,506.73 597.69,507.81 596.01,508.89 594.33,509.97 592.65,511.05 590.97,512.12 589.30,513.19 587.64,514.27 585.98,515.34 584.32,516.40 582.67,517.47 581.02,518.53 579.37,519.60 577.74,520.66 576.10,521.72 574.47,522.77 572.84,523.83 571.22,524.88 569.61,525.93 568.00,526.98 566.39,528.03 564.79,529.07 563.19,530.12 561.60,531.16 560.01,532.20 558.43,533.23 556.85,534.27 555.28,535.30 553.72,536.33 552.15,537.36 550.60,538.38 549.05,539.41 547.50,540.43 545.96,541.45 544.43,542.46 542.90,543.48 541.38,544.49 539.86,545.50 538.35,546.50 536.84,547.51 535.34,548.51 533.84,549.51 532.35,550.51 530.87,551.50 529.39,552.49 527.92,553.48 526.45,554.47 524.99,555.45 523.54,556.43 522.09,557.41 520.65,558.39 519.22,559.36 517.79,560.33 516.37,561.30 514.95,562.26 513.54,563.22 512.14,564.18 510.74,565.14 509.35,566.09 507.96,567.04 506.59,567.99 505.22,568.93 503.85,569.87 502.50,570.81 501.14,571.74 499.80,572.68 498.46,573.61 497.13,574.53 495.81,575.45 494.50,576.37 493.19,577.29 491.89,578.20 490.59,579.11 489.30,580.02 488.02,580.92 486.75,581.82 485.48,582.72 484.23,583.61 482.98,584.50 481.73,585.39 480.50,586.27 479.27,587.15 478.05,588.03 476.83,588.90 475.63,589.77 474.43,590.64 473.24,591.50 472.06,592.36">