<?xml version='1.0' encoding='UTF-8'?>
<!-- generated on 2022-09-06 03:38:11 by Eclipse SUMO netconvert Version 1.13.0
<configuration xmlns:xsi="http://www.w3.org/2001/XMLSchema-instance" xsi:noNamespaceSchemaLocation="http://sumo.dlr.de/xsd/netconvertConfiguration.xsd">

    <input>
        <opendrive-files value="map\8\15764775\15764775.xodr"/>
    </input>

    <output>
        <output-file value="C:\Users\LinGe\AppData\Local\Temp\tmp9s12sb6c\15764775.net.xml"/>
    </output>

    <processing>
        <geometry.max-grade.fix value="false"/>
    </processing>

    <tls_building>
        <tls.left-green.time value="0"/>
    </tls_building>

    <junctions>
        <rectangular-lane-cut value="true"/>
    </junctions>

    <report>
        <aggregate-warnings value="5"/>
    </report>

</configuration>
-->
<net xmlns:xsi="http://www.w3.org/2001/XMLSchema-instance" version="1.9" junctionCornerDetail="5" rectangularLaneCut="true" limitTurnSpeed="5.50" xsi:noNamespaceSchemaLocation="http://sumo.dlr.de/xsd/net_file.xsd">
  <location netOffset="301.35,-94.51" convBoundary="0.00,0.00,1102.85,1106.97" origBoundary="-301.35,94.51,801.51,1201.48" projParameter="!"/>
  <type id="bidirectional" priority="1" speed="1.39" disallow="pedestrian tram rail_urban rail rail_electric rail_fast ship" width="3.65"/>
  <type id="border" priority="0" speed="1.39" disallow="all" discard="1" width="0.10"/>
  <type id="driving" priority="1" speed="13.89" disallow="pedestrian tram rail_urban rail rail_electric rail_fast ship" width="3.65"/>
  <type id="entry" priority="1" speed="22.22" disallow="pedestrian tram rail_urban rail rail_electric rail_fast ship" width="3.65"/>
  <type id="exit" priority="1" speed="22.22" disallow="pedestrian tram rail_urban rail rail_electric rail_fast ship" width="3.65"/>
  <type id="median" priority="0" speed="1.39" disallow="all" discard="1" width="0.10"/>
  <type id="mwyEntry" priority="1" speed="22.22" allow="private emergency authority army vip passenger hov taxi bus coach delivery truck trailer motorcycle evehicle custom1 custom2" width="3.65"/>
  <type id="mwyExit" priority="1" speed="22.22" allow="private emergency authority army vip passenger hov taxi bus coach delivery truck trailer motorcycle evehicle custom1 custom2" width="3.65"/>
  <type id="none" priority="0" speed="1.39" disallow="all" discard="1" width="1.00"/>
  <type id="offRamp" priority="1" speed="22.22" allow="private emergency authority army vip passenger hov taxi bus coach delivery truck trailer motorcycle evehicle custom1 custom2" width="3.65"/>
  <type id="onRamp" priority="1" speed="22.22" allow="private emergency authority army vip passenger hov taxi bus coach delivery truck trailer motorcycle evehicle custom1 custom2" width="3.65"/>
  <type id="parking" priority="1" speed="1.39" disallow="pedestrian tram rail_urban rail rail_electric rail_fast ship" width="2.50"/>
  <type id="rail" priority="3" speed="33.33" allow="rail_urban rail rail_electric rail_fast" width="3.65"/>
  <type id="restricted" priority="0" speed="13.89" disallow="all" width="3.65"/>
  <type id="roadWorks" priority="0" speed="1.39" allow="authority" width="3.65"/>
  <type id="shoulder" priority="0" speed="1.39" disallow="all" discard="1" width="1.00"/>
  <type id="special1" priority="1" speed="22.22" allow="custom1" discard="1" width="3.65"/>
  <type id="special2" priority="1" speed="22.22" allow="custom2" discard="1" width="3.65"/>
  <type id="special3" priority="1" speed="22.22" allow="custom1 custom2" discard="1" width="3.65"/>
  <type id="stop" priority="1" speed="13.89" disallow="pedestrian tram rail_urban rail rail_electric rail_fast ship" width="3.65"/>
  <type id="tram" priority="2" speed="13.89" allow="tram" width="3.65"/>
  <edge id=":0_0" function="internal">
    <lane id=":0_0_0" index="0" disallow="pedestrian tram rail_urban rail rail_electric rail_fast ship" speed="19.44" length="8.00" width="3.75" shape="95.05,1034.92 101.94,1030.86,0.00"/>
  </edge>
  <edge id=":0_1" function="internal">
    <lane id=":0_1_0" index="0" disallow="pedestrian tram rail_urban rail rail_electric rail_fast ship" speed="22.22" length="8.00" width="3.75" shape="95.05,1034.92 101.93,1030.87"/>
    <lane id=":0_1_1" index="1" disallow="pedestrian tram rail_urban rail rail_electric rail_fast ship" speed="22.22" length="8.00" width="3.75" shape="96.95,1038.16 103.84,1034.09"/>
    <lane id=":0_1_2" index="2" disallow="pedestrian tram rail_urban rail rail_electric rail_fast ship" speed="22.22" length="8.00" width="3.75" shape="98.85,1041.39 105.74,1037.32"/>
  </edge>
  <edge id=":1_0" function="internal">
    <lane id=":1_0_0" index="0" disallow="pedestrian tram rail_urban rail rail_electric rail_fast ship" speed="15.28" length="8.04" width="3.75" shape="540.21,601.23 545.30,595.00,0.00"/>
  </edge>
  <edge id=":1.0_0" function="internal">
    <lane id=":1.0_0_0" index="0" disallow="pedestrian tram rail_urban rail rail_electric rail_fast ship" speed="22.22" length="0.30" width="3.75" shape="340.37,884.10 340.15,884.31"/>
    <lane id=":1.0_0_1" index="1" disallow="pedestrian tram rail_urban rail rail_electric rail_fast ship" speed="22.22" length="0.30" width="3.75" shape="337.85,881.33 337.63,881.53"/>
    <lane id=":1.0_0_2" index="2" disallow="pedestrian tram rail_urban rail rail_electric rail_fast ship" speed="22.22" length="0.30" width="3.75" shape="335.32,878.56 335.11,878.76"/>
  </edge>
  <edge id=":12.11_0" function="internal">
    <lane id=":12.11_0_0" index="0" disallow="pedestrian tram rail_urban rail rail_electric rail_fast ship" speed="22.22" length="0.30" width="3.75" shape="775.59,360.41,20.00 775.40,360.19,20.00"/>
    <lane id=":12.11_0_1" index="1" disallow="pedestrian tram rail_urban rail rail_electric rail_fast ship" speed="22.22" length="0.30" width="3.75" shape="778.41,357.95,20.00 778.22,357.72,20.00"/>
    <lane id=":12.11_0_2" index="2" disallow="pedestrian tram rail_urban rail rail_electric rail_fast ship" speed="22.22" length="0.30" width="3.75" shape="781.24,355.48,20.00 781.04,355.25,20.00"/>
  </edge>
  <edge id=":15.14_0" function="internal">
    <lane id=":15.14_0_0" index="0" disallow="pedestrian tram rail_urban rail rail_electric rail_fast ship" speed="19.44" length="0.29" width="3.75" shape="777.45,650.47,14.06 777.17,650.55,14.05"/>
  </edge>
  <edge id=":17.16_0" function="internal">
    <lane id=":17.16_0_0" index="0" disallow="pedestrian tram rail_urban rail rail_electric rail_fast ship" speed="16.67" length="0.30" width="3.75" shape="762.80,490.29,13.74 762.94,490.03,13.75"/>
  </edge>
  <edge id=":19.18_0" function="internal">
    <lane id=":19.18_0_0" index="0" disallow="pedestrian tram rail_urban rail rail_electric rail_fast ship" speed="22.22" length="0.29" width="3.75" shape="703.16,250.47,14.05 703.15,250.76,14.03"/>
  </edge>
  <edge id=":2_0" function="internal">
    <lane id=":2_0_0" index="0" disallow="pedestrian tram rail_urban rail rail_electric rail_fast ship" speed="22.22" length="47.57" width="3.75" shape="580.42,140.95,20.00 590.68,149.02,20.00 602.43,157.46,20.00 612.87,164.54,20.00 619.13,168.55,20.00"/>
  </edge>
  <edge id=":2_1" function="internal">
    <lane id=":2_1_0" index="0" disallow="pedestrian tram rail_urban rail rail_electric rail_fast ship" speed="22.22" length="47.82" width="3.75" shape="580.42,140.95,20.00 616.63,172.27,20.00"/>
    <lane id=":2_1_1" index="1" disallow="pedestrian tram rail_urban rail rail_electric rail_fast ship" speed="22.22" length="47.82" width="3.75" shape="577.99,143.80,20.00 614.15,175.09,20.00"/>
    <lane id=":2_1_2" index="2" disallow="pedestrian tram rail_urban rail rail_electric rail_fast ship" speed="22.22" length="47.82" width="3.75" shape="575.55,146.66,20.00 611.68,177.91,20.00"/>
  </edge>
  <edge id=":21.20_0" function="internal">
    <lane id=":21.20_0_0" index="0" disallow="pedestrian tram rail_urban rail rail_electric rail_fast ship" speed="8.33" length="0.30" width="3.75" shape="952.51,184.89,9.82 952.64,184.62,9.83"/>
  </edge>
  <edge id=":3_0" function="internal">
    <lane id=":3_0_0" index="0" disallow="pedestrian tram rail_urban rail rail_electric rail_fast ship" speed="20.83" length="30.16" width="3.75" shape="1053.15,753.37,20.00 1047.12,745.01,19.98 1041.50,738.67,19.96 1036.67,734.11,19.94 1033.04,731.07,19.93"/>
  </edge>
  <edge id=":3_1" function="internal">
    <lane id=":3_1_0" index="0" disallow="pedestrian tram rail_urban rail rail_electric rail_fast ship" speed="22.22" length="30.41" width="3.75" shape="1053.15,753.37,20.00 1036.69,727.78,20.00"/>
    <lane id=":3_1_1" index="1" disallow="pedestrian tram rail_urban rail rail_electric rail_fast ship" speed="22.22" length="30.41" width="3.75" shape="1056.30,751.34,20.00 1039.85,725.76,20.00"/>
    <lane id=":3_1_2" index="2" disallow="pedestrian tram rail_urban rail rail_electric rail_fast ship" speed="22.22" length="30.41" width="3.75" shape="1059.45,749.30,20.00 1043.01,723.73,20.00"/>
  </edge>
  <edge id=":4_0" function="internal">
    <lane id=":4_0_0" index="0" disallow="pedestrian tram rail_urban rail rail_electric rail_fast ship" speed="20.83" length="104.62" width="3.75" shape="252.43,962.85 164.33,1019.27"/>
  </edge>
  <edge id=":4_1" function="internal">
    <lane id=":4_1_0" index="0" disallow="pedestrian tram rail_urban rail rail_electric rail_fast ship" speed="22.22" length="104.22" width="3.75" shape="250.10,959.52 164.33,1019.27"/>
    <lane id=":4_1_1" index="1" disallow="pedestrian tram rail_urban rail rail_electric rail_fast ship" speed="22.22" length="104.22" width="3.75" shape="247.83,956.54 162.32,1016.11"/>
    <lane id=":4_1_2" index="2" disallow="pedestrian tram rail_urban rail rail_electric rail_fast ship" speed="22.22" length="104.22" width="3.75" shape="245.56,953.55 160.30,1012.95"/>
  </edge>
  <edge id=":5_0" function="internal">
    <lane id=":5_0_0" index="0" disallow="pedestrian tram rail_urban rail rail_electric rail_fast ship" speed="19.44" length="206.62" width="3.75" shape="729.52,316.28,20.00 706.69,293.47,20.00 658.67,246.34,20.00 609.12,198.10,20.00 581.68,171.96,20.00"/>
  </edge>
  <edge id=":5_1" function="internal">
    <lane id=":5_1_0" index="0" disallow="pedestrian tram rail_urban rail rail_electric rail_fast ship" speed="22.22" length="206.66" width="3.75" shape="732.15,313.09,20.00 705.86,287.85,20.00 657.28,242.14,20.00 608.52,196.62,20.00 581.68,171.96,20.00"/>
    <lane id=":5_1_1" index="1" disallow="pedestrian tram rail_urban rail rail_electric rail_fast ship" speed="22.22" length="206.66" width="3.75" shape="734.86,310.50,20.00 708.52,285.22,20.00 659.86,239.42,20.00 611.01,193.82,20.00 584.13,169.12,20.00"/>
    <lane id=":5_1_2" index="2" disallow="pedestrian tram rail_urban rail rail_electric rail_fast ship" speed="22.22" length="206.66" width="3.75" shape="737.57,307.90,20.00 711.19,282.58,20.00 662.44,236.71,20.00 613.50,191.02,20.00 586.58,166.28,20.00"/>
  </edge>
  <edge id=":5.4_0" function="internal">
    <lane id=":5.4_0_0" index="0" disallow="pedestrian tram rail_urban rail rail_electric rail_fast ship" speed="22.22" length="0.30" width="3.75" shape="324.85,867.47 325.06,867.28"/>
    <lane id=":5.4_0_1" index="1" disallow="pedestrian tram rail_urban rail rail_electric rail_fast ship" speed="22.22" length="0.30" width="3.75" shape="327.37,870.25 327.59,870.05"/>
    <lane id=":5.4_0_2" index="2" disallow="pedestrian tram rail_urban rail rail_electric rail_fast ship" speed="22.22" length="0.30" width="3.75" shape="329.89,873.03 330.12,872.82"/>
  </edge>
  <edge id=":6_0" function="internal">
    <lane id=":6_0_0" index="0" disallow="pedestrian tram rail_urban rail rail_electric rail_fast ship" speed="22.22" length="7.93" width="3.75" shape="562.49,609.75,0.00 557.52,615.93"/>
  </edge>
  <edge id=":7_0" function="internal">
    <lane id=":7_0_0" index="0" disallow="pedestrian tram rail_urban rail rail_electric rail_fast ship" speed="10.49" length="16.86" width="3.75" shape="721.61,256.27,19.99 720.34,260.96,19.99 720.27,265.15,20.00 721.40,268.84,20.00 723.74,272.03,20.00"/>
  </edge>
  <edge id=":7_1" function="internal">
    <lane id=":7_1_0" index="0" disallow="pedestrian tram rail_urban rail rail_electric rail_fast ship" speed="22.22" length="14.21" width="3.75" shape="713.62,262.00,20.00 723.74,272.03,20.00"/>
    <lane id=":7_1_1" index="1" disallow="pedestrian tram rail_urban rail rail_electric rail_fast ship" speed="22.22" length="14.21" width="3.75" shape="710.99,264.67,20.00 721.08,274.68,20.00"/>
    <lane id=":7_1_2" index="2" disallow="pedestrian tram rail_urban rail rail_electric rail_fast ship" speed="22.22" length="14.21" width="3.75" shape="708.36,267.35,20.00 718.43,277.33,20.00"/>
  </edge>
  <edge id=":9.8_0" function="internal">
    <lane id=":9.8_0_0" index="0" disallow="pedestrian tram rail_urban rail rail_electric rail_fast ship" speed="22.22" length="0.30" width="3.75" shape="792.51,345.21,20.00 792.72,345.44,20.00"/>
    <lane id=":9.8_0_1" index="1" disallow="pedestrian tram rail_urban rail rail_electric rail_fast ship" speed="22.22" length="0.30" width="3.75" shape="789.69,347.68,20.00 789.89,347.90,20.00"/>
    <lane id=":9.8_0_2" index="2" disallow="pedestrian tram rail_urban rail rail_electric rail_fast ship" speed="22.22" length="0.30" width="3.75" shape="786.87,350.15,20.00 787.07,350.37,20.00"/>
  </edge>
  <edge id="-0" from="6" to="1.0" priority="1" type="driving" shape="552.69,606.97 551.62,608.30 550.56,609.63 549.50,610.95 548.46,612.27 547.43,613.59 546.41,614.90 545.39,616.21 544.39,617.52 543.40,618.82 542.41,620.12 541.43,621.42 540.46,622.71 539.50,624.01 538.55,625.30 537.61,626.59 536.67,627.87 535.74,629.15 534.81,630.44 533.90,631.72 532.99,632.99 532.09,634.27 531.19,635.54 530.30,636.82 529.41,638.09 528.53,639.36 527.66,640.63 526.79,641.90 525.93,643.16 525.07,644.43 524.21,645.70 523.36,646.96 522.51,648.22 521.67,649.49 520.83,650.75 519.99,652.02 519.16,653.28 518.33,654.54 517.50,655.81 516.68,657.07 515.85,658.33 515.03,659.60 514.21,660.86 513.40,662.13 512.58,663.40 511.77,664.66 510.95,665.93 510.14,667.20 509.33,668.47 508.52,669.74 507.70,671.02 506.89,672.29 506.08,673.57 505.27,674.85 504.45,676.13 503.64,677.41 502.82,678.69 502.00,679.98 501.18,681.27 500.36,682.56 499.54,683.85 498.71,685.15 497.88,686.45 497.05,687.75 496.22,689.06 495.38,690.36 494.54,691.67 493.70,692.99 492.85,694.31 492.00,695.63 491.14,696.95 490.28,698.28 489.41,699.61 488.54,700.95 487.67,702.29 486.79,703.63 485.90,704.98 485.01,706.33 484.11,707.69 483.20,709.05 482.29,710.42 481.37,711.79 480.45,713.16 479.52,714.54 478.58,715.93 477.63,717.32 476.68,718.72 475.71,720.12 474.74,721.52 473.76,722.94 472.77,724.36 471.78,725.78 470.77,727.21 469.76,728.65 468.73,730.09 467.70,731.54 466.65,732.99 465.60,734.45 464.53,735.92 463.45,737.40 462.37,738.88 461.27,740.37 460.16,741.86 459.04,743.37 457.91,744.88 456.76,746.39 455.61,747.92 454.44,749.45 453.26,750.99 452.06,752.54 450.85,754.09 449.63,755.66 448.40,757.23 447.15,758.81 445.89,760.40 444.62,761.99 443.33,763.60 442.02,765.21 440.70,766.84 439.37,768.47 438.02,770.11 436.65,771.76 435.27,773.41 433.87,775.08 432.46,776.76 431.03,778.45 429.59,780.14 428.12,781.85 426.65,783.56 425.15,785.29 423.64,787.03 422.10,788.77 420.55,790.53 418.99,792.30 417.40,794.07 415.80,795.86 414.17,797.66 412.53,799.47 410.87,801.29 409.19,803.12 407.49,804.96 405.77,806.81 404.03,808.68 402.27,810.55 400.49,812.44 398.69,814.34 396.87,816.25 395.02,818.18 393.16,820.11 391.27,822.06 389.37,824.02 387.44,825.99 385.48,827.97 383.51,829.97 381.51,831.98 379.49,834.00 377.45,836.03 375.38,838.08 373.29,840.14 371.18,842.21 369.04,844.30 366.88,846.40 364.69,848.52 362.48,850.64 360.25,852.78 357.99,854.94 355.70,857.11 353.39,859.29 351.05,861.49 348.69,863.70 346.30,865.92 343.88,868.16 341.44,870.42 338.97,872.69 336.48,874.97 333.95,877.27">
    <lane id="-0_0" index="0" disallow="pedestrian tram rail_urban rail rail_electric rail_fast ship" speed="22.22" length="345.80" width="3.75" shape="557.52,615.93 556.85,616.77 555.83,618.07 554.82,619.36 553.81,620.65 552.82,621.93 551.83,623.21 550.86,624.49 549.89,625.77 548.93,627.05 547.98,628.32 547.04,629.59 546.10,630.85 545.17,632.12 544.25,633.38 543.34,634.64 542.43,635.90 541.53,637.16 540.63,638.42 539.75,639.68 538.86,640.93 537.99,642.18 537.11,643.44 536.25,644.69 535.39,645.94 534.53,647.19 533.68,648.44 532.83,649.69 531.98,650.94 531.14,652.19 530.31,653.43 529.47,654.68 528.64,655.93 527.82,657.18 526.99,658.43 526.17,659.69 525.35,660.94 524.53,662.19 523.72,663.44 522.90,664.70 522.09,665.95 521.28,667.21 520.47,668.47 519.66,669.73 518.85,670.99 518.04,672.26 517.23,673.52 516.42,674.79 515.61,676.06 514.80,677.33 513.99,678.60 513.18,679.88 512.36,681.16 511.55,682.44 510.73,683.72 509.91,685.01 509.09,686.30 508.27,687.59 507.45,688.89 506.62,690.19 505.79,691.49 504.95,692.80 504.12,694.11 503.28,695.42 502.43,696.74 501.58,698.06 500.73,699.38 499.87,700.71 499.01,702.05 498.14,703.38 497.27,704.73 496.39,706.07 495.51,707.42 494.62,708.78 493.73,710.14 492.83,711.50 491.92,712.87 491.01,714.25 490.09,715.63 489.16,717.01 488.22,718.40 487.28,719.80 486.33,721.20 485.37,722.60 484.41,724.02 483.43,725.43 482.45,726.86 481.46,728.29 480.46,729.72 479.45,731.17 478.43,732.61 477.40,734.07 476.37,735.53 475.32,737.00 474.26,738.47 473.19,739.95 472.11,741.44 471.02,742.93 469.92,744.43 468.81,745.94 467.68,747.46 466.55,748.98 465.40,750.51 464.24,752.05 463.07,753.59 461.88,755.15 460.69,756.71 459.48,758.28 458.25,759.85 457.02,761.44 455.77,763.03 454.50,764.63 453.22,766.24 451.93,767.86 450.62,769.48 449.30,771.12 447.97,772.76 446.61,774.41 445.25,776.07 443.87,777.74 442.47,779.42 441.05,781.11 439.62,782.81 438.18,784.52 436.71,786.23 435.23,787.96 433.74,789.70 432.22,791.44 430.69,793.20 429.14,794.96 427.58,796.74 425.99,798.53 424.39,800.32 422.77,802.13 421.13,803.95 419.47,805.78 417.79,807.62 416.09,809.47 414.37,811.33 412.63,813.20 410.88,815.08 409.10,816.98 407.30,818.88 405.48,820.80 403.64,822.73 401.78,824.67 399.90,826.62 398.00,828.59 396.07,830.57 394.13,832.55 392.16,834.56 390.17,836.57 388.15,838.59 386.12,840.63 384.06,842.68 381.97,844.75 379.87,846.82 377.74,848.91 375.58,851.02 373.41,853.13 371.20,855.26 368.98,857.41 366.72,859.56 364.45,861.73 362.15,863.92 359.82,866.11 357.47,868.33 355.09,870.55 352.68,872.79 350.25,875.05 347.79,877.31 345.31,879.60 342.80,881.89 340.37,884.10" type="driving"/>
    <lane id="-0_1" index="1" disallow="pedestrian tram rail_urban rail rail_electric rail_fast ship" speed="22.22" length="345.80" width="3.75" shape="554.59,613.60 553.91,614.44 552.88,615.75 551.86,617.05 550.85,618.35 549.85,619.64 548.86,620.94 547.87,622.22 546.90,623.51 545.93,624.79 544.97,626.08 544.02,627.35 543.08,628.63 542.15,629.91 541.22,631.18 540.30,632.45 539.38,633.72 538.48,634.98 537.58,636.25 536.68,637.51 535.79,638.78 534.91,640.04 534.03,641.30 533.16,642.56 532.29,643.81 531.43,645.07 530.58,646.33 529.72,647.58 528.87,648.84 528.03,650.10 527.19,651.35 526.35,652.61 525.52,653.86 524.69,655.12 523.86,656.37 523.03,657.63 522.21,658.88 521.39,660.14 520.57,661.40 519.75,662.66 518.94,663.92 518.12,665.18 517.31,666.44 516.50,667.70 515.69,668.97 514.88,670.23 514.07,671.50 513.26,672.77 512.45,674.04 511.64,675.31 510.82,676.59 510.01,677.87 509.20,679.15 508.38,680.43 507.57,681.71 506.75,683.00 505.93,684.29 505.11,685.58 504.28,686.88 503.46,688.17 502.63,689.48 501.79,690.78 500.96,692.09 500.12,693.40 499.28,694.71 498.43,696.03 497.58,697.35 496.72,698.68 495.86,700.01 495.00,701.34 494.13,702.68 493.25,704.02 492.37,705.37 491.49,706.72 490.60,708.07 489.70,709.43 488.80,710.80 487.89,712.17 486.97,713.54 486.04,714.92 485.11,716.31 484.18,717.69 483.23,719.09 482.28,720.49 481.32,721.90 480.35,723.31 479.37,724.72 478.38,726.15 477.39,727.58 476.38,729.01 475.37,730.45 474.34,731.90 473.31,733.35 472.27,734.81 471.22,736.28 470.15,737.75 469.08,739.23 467.99,740.72 466.90,742.21 465.79,743.71 464.67,745.22 463.54,746.73 462.40,748.26 461.25,749.79 460.08,751.32 458.91,752.87 457.71,754.42 456.51,755.98 455.29,757.55 454.06,759.12 452.82,760.71 451.56,762.30 450.29,763.90 449.00,765.51 447.70,767.13 446.39,768.76 445.06,770.39 443.72,772.03 442.36,773.69 440.98,775.35 439.59,777.02 438.18,778.70 436.76,780.39 435.32,782.09 433.86,783.80 432.39,785.52 430.90,787.24 429.39,788.98 427.87,790.73 426.33,792.49 424.77,794.26 423.19,796.03 421.59,797.82 419.98,799.62 418.34,801.43 416.69,803.25 415.02,805.08 413.33,806.93 411.62,808.78 409.89,810.65 408.14,812.52 406.37,814.41 404.58,816.31 402.77,818.22 400.93,820.14 399.08,822.07 397.21,824.02 395.31,825.98 393.39,827.95 391.45,829.93 389.49,831.92 387.50,833.93 385.50,835.95 383.47,837.98 381.41,840.02 379.34,842.08 377.24,844.15 375.11,846.23 372.97,848.33 370.80,850.44 368.60,852.56 366.38,854.70 364.13,856.85 361.86,859.01 359.57,861.19 357.25,863.38 354.90,865.59 352.53,867.81 350.13,870.04 347.70,872.29 345.25,874.56 342.78,876.83 340.27,879.13 337.85,881.33" type="driving"/>
    <lane id="-0_2" index="2" disallow="pedestrian tram rail_urban rail rail_electric rail_fast ship" speed="22.22" length="345.80" width="3.75" shape="551.65,611.26 550.97,612.12 549.93,613.43 548.91,614.74 547.89,616.05 546.88,617.35 545.88,618.66 544.89,619.95 543.91,621.25 542.93,622.54 541.97,623.83 541.01,625.12 540.06,626.41 539.12,627.69 538.18,628.97 537.26,630.25 536.34,631.53 535.42,632.81 534.52,634.08 533.62,635.35 532.72,636.62 531.84,637.89 530.95,639.16 530.08,640.42 529.20,641.69 528.34,642.95 527.48,644.22 526.62,645.48 525.76,646.74 524.92,648.01 524.07,649.27 523.23,650.53 522.39,651.79 521.56,653.05 520.73,654.31 519.90,655.57 519.07,656.83 518.25,658.09 517.43,659.36 516.61,660.62 515.79,661.88 514.97,663.15 514.16,664.41 513.34,665.68 512.53,666.94 511.72,668.21 510.91,669.48 510.10,670.75 509.28,672.03 508.47,673.30 507.66,674.58 506.85,675.85 506.03,677.13 505.22,678.42 504.40,679.70 503.58,680.99 502.76,682.28 501.94,683.57 501.12,684.86 500.29,686.16 499.46,687.46 498.63,688.76 497.80,690.07 496.96,691.38 496.12,692.69 495.27,694.00 494.43,695.32 493.57,696.64 492.71,697.97 491.85,699.30 490.99,700.63 490.11,701.97 489.24,703.31 488.35,704.66 487.47,706.01 486.57,707.37 485.67,708.72 484.76,710.09 483.85,711.46 482.93,712.83 482.00,714.21 481.07,715.59 480.13,716.98 479.18,718.38 478.22,719.78 477.26,721.18 476.28,722.59 475.30,724.01 474.31,725.43 473.31,726.86 472.30,728.29 471.28,729.73 470.26,731.18 469.22,732.63 468.17,734.09 467.11,735.55 466.05,737.03 464.97,738.50 463.88,739.99 462.78,741.48 461.67,742.98 460.54,744.49 459.41,746.00 458.26,747.52 457.10,749.05 455.93,750.59 454.74,752.13 453.55,753.69 452.33,755.25 451.11,756.81 449.87,758.39 448.62,759.97 447.36,761.57 446.08,763.17 444.78,764.78 443.48,766.39 442.15,768.02 440.82,769.66 439.46,771.30 438.09,772.95 436.71,774.62 435.31,776.29 433.89,777.97 432.46,779.66 431.01,781.36 429.55,783.07 428.06,784.79 426.56,786.52 425.05,788.26 423.51,790.01 421.96,791.77 420.39,793.54 418.80,795.32 417.19,797.11 415.56,798.92 413.92,800.73 412.25,802.55 410.57,804.39 408.87,806.23 407.14,808.09 405.40,809.96 403.64,811.84 401.85,813.73 400.05,815.63 398.22,817.55 396.38,819.47 394.51,821.41 392.62,823.36 390.71,825.33 388.77,827.30 386.82,829.29 384.84,831.29 382.84,833.30 380.82,835.33 378.77,837.36 376.70,839.41 374.61,841.48 372.49,843.55 370.35,845.64 368.19,847.75 366.00,849.86 363.78,852.00 361.54,854.14 359.28,856.30 356.99,858.47 354.68,860.65 352.34,862.85 349.97,865.07 347.58,867.30 345.16,869.54 342.71,871.80 340.24,874.07 337.74,876.36 335.32,878.56" type="driving"/>
  </edge>
  <edge id="-1" from="1.0" to="4" priority="1" type="driving" shape="333.95,877.27 332.15,878.90 330.36,880.53 328.57,882.14 326.78,883.75 325.00,885.34 323.23,886.93 321.45,888.51 319.69,890.07 317.92,891.63 316.17,893.18 314.41,894.72 312.66,896.25 310.92,897.78 309.18,899.29 307.44,900.80 305.71,902.29 303.98,903.78 302.26,905.26 300.54,906.73 298.83,908.19 297.12,909.64 295.42,911.08 293.72,912.52 292.02,913.95 290.33,915.37 288.64,916.78 286.96,918.18 285.28,919.57 283.60,920.96 281.93,922.33 280.27,923.70 278.61,925.06 276.95,926.42 275.30,927.76 273.65,929.10 272.00,930.43 270.36,931.75 268.73,933.06 267.10,934.37 265.47,935.67 263.85,936.96 262.23,938.24 260.61,939.51 259.00,940.78 257.39,942.04 255.79,943.29 254.19,944.54 252.60,945.78 251.01,947.01 249.42,948.23 247.84,949.45 246.26,950.66 244.69,951.86 243.12,953.05 241.55,954.24 239.99,955.42 238.43,956.59 236.88,957.76 235.33,958.92 233.78,960.07 232.24,961.22 230.70,962.36 229.17,963.49 227.64,964.62 226.11,965.74 224.59,966.85 223.07,967.96 221.56,969.06 220.05,970.15 218.54,971.24 217.04,972.32 215.54,973.40 214.04,974.47 212.55,975.53 211.06,976.59 209.58,977.64 208.10,978.68 206.62,979.72 205.15,980.75 203.68,981.78 202.22,982.80 200.75,983.82 199.30,984.83 197.84,985.83 196.39,986.83 194.95,987.82 193.50,988.81 192.06,989.79 190.63,990.77 189.20,991.74 187.77,992.70 186.34,993.66 184.92,994.62 183.50,995.57 182.09,996.51 180.68,997.45 179.27,998.39 177.87,999.31 176.47,1000.24 175.07,1001.16 173.68,1002.07 172.29,1002.98 170.91,1003.89 169.52,1004.79 168.14,1005.68 166.77,1006.57 165.40,1007.46 164.03,1008.34 162.66,1009.22">
    <lane id="-1_0" index="0" disallow="pedestrian tram rail_urban rail rail_electric rail_fast ship" speed="22.22" length="117.04" width="3.75" shape="340.15,884.31 338.45,885.85 336.64,887.48 334.84,889.11 333.05,890.72 331.25,892.33 329.47,893.93 327.68,895.51 325.90,897.09 324.13,898.66 322.36,900.22 320.59,901.77 318.83,903.31 317.08,904.85 315.32,906.37 313.58,907.88 311.83,909.39 310.10,910.89 308.36,912.38 306.63,913.86 304.91,915.33 303.19,916.79 301.47,918.24 299.76,919.69 298.05,921.13 296.35,922.55 294.65,923.97 292.95,925.39 291.26,926.79 289.58,928.18 287.89,929.57 286.22,930.95 284.54,932.32 282.87,933.68 281.21,935.04 279.55,936.38 277.89,937.72 276.24,939.05 274.59,940.38 272.95,941.69 271.31,943.00 269.67,944.30 268.04,945.59 266.42,946.88 264.79,948.15 263.17,949.42 261.56,950.68 259.95,951.94 258.34,953.19 256.74,954.43 255.14,955.66 253.55,956.88 251.96,958.10 250.37,959.31 250.10,959.52" type="driving"/>
    <lane id="-1_1" index="1" disallow="pedestrian tram rail_urban rail rail_electric rail_fast ship" speed="22.22" length="117.04" width="3.75" shape="337.63,881.53 335.93,883.07 334.13,884.70 332.33,886.32 330.54,887.93 328.75,889.53 326.97,891.13 325.19,892.71 323.42,894.28 321.65,895.85 319.88,897.40 318.12,898.95 316.36,900.49 314.61,902.02 312.87,903.54 311.12,905.05 309.38,906.55 307.65,908.04 305.92,909.53 304.20,911.00 302.48,912.47 300.76,913.93 299.05,915.38 297.34,916.82 295.64,918.25 293.94,919.68 292.24,921.09 290.55,922.50 288.87,923.90 287.19,925.29 285.51,926.68 283.84,928.05 282.17,929.42 280.50,930.78 278.84,932.13 277.19,933.47 275.54,934.80 273.89,936.13 272.25,937.45 270.61,938.76 268.97,940.07 267.34,941.36 265.72,942.65 264.09,943.93 262.48,945.20 260.86,946.47 259.25,947.73 257.65,948.98 256.04,950.22 254.45,951.46 252.85,952.69 251.26,953.91 249.68,955.12 248.10,956.33 247.83,956.54" type="driving"/>
    <lane id="-1_2" index="2" disallow="pedestrian tram rail_urban rail rail_electric rail_fast ship" speed="22.22" length="117.04" width="3.75" shape="335.11,878.76 333.41,880.29 331.62,881.92 329.82,883.54 328.04,885.14 326.25,886.74 324.47,888.33 322.70,889.91 320.93,891.48 319.17,893.04 317.40,894.59 315.65,896.13 313.90,897.67 312.15,899.19 310.41,900.71 308.67,902.21 306.94,903.71 305.21,905.20 303.48,906.68 301.76,908.15 300.05,909.62 298.33,911.07 296.63,912.52 294.92,913.95 293.23,915.38 291.53,916.80 289.84,918.21 288.16,919.62 286.48,921.01 284.80,922.40 283.13,923.78 281.46,925.15 279.79,926.51 278.14,927.87 276.48,929.22 274.83,930.56 273.18,931.89 271.54,933.21 269.90,934.53 268.27,935.83 266.64,937.13 265.01,938.42 263.39,939.71 261.77,940.99 260.16,942.26 258.55,943.52 256.95,944.77 255.34,946.02 253.75,947.26 252.15,948.49 250.57,949.72 248.98,950.93 247.40,952.14 245.83,953.35 245.56,953.55" type="driving"/>
  </edge>
  <edge id="-10" from="10.begin" to="3" priority="1" type="driving" shape="1099.84,806.81,20.00 1098.95,805.54,20.00 1098.06,804.25,20.00 1097.15,802.94,20.00 1096.23,801.61,20.00 1095.30,800.26,20.00 1094.36,798.88,20.00 1093.41,797.49,20.00 1092.44,796.07,20.00 1091.47,794.64,20.00 1090.49,793.18,20.00 1089.49,791.71,20.00 1088.49,790.21,20.00 1087.47,788.70,20.00 1086.45,787.16,20.00 1085.41,785.61,20.00 1084.36,784.04,20.00 1083.31,782.45,20.00 1082.24,780.84,20.00 1081.16,779.21,20.00 1080.08,777.56,20.00 1078.98,775.89,20.00 1077.87,774.21,20.00 1076.76,772.50,20.00 1075.63,770.78,20.00 1074.49,769.04,20.00 1073.35,767.29,20.00 1072.19,765.51,20.00 1071.02,763.72,20.00 1069.85,761.92,20.00 1068.66,760.09,20.00 1067.47,758.25,20.00 1066.27,756.39,20.00 1065.05,754.52,20.00 1063.83,752.63,20.00 1062.60,750.72,20.00 1061.36,748.80,20.00 1060.11,746.86,20.00 1058.85,744.91,20.00">