<?xml version='1.0' encoding='UTF-8'?>
<!-- generated on 2022-09-25 13:23:21 by Eclipse SUMO netconvert Version 1.13.0
<configuration xmlns:xsi="http://www.w3.org/2001/XMLSchema-instance" xsi:noNamespaceSchemaLocation="http://sumo.dlr.de/xsd/netconvertConfiguration.xsd">

    <input>
        <opendrive-files value="map_new_new\4\76\76.xodr"/>
    </input>

    <output>
        <output-file value="C:\Users\LinGe\AppData\Local\Temp\tmpuyomyrn6\76.net.xml"/>
    </output>

    <processing>
        <geometry.max-grade.fix value="false"/>
    </processing>

    <tls_building>
        <tls.left-green.time value="0"/>
    </tls_building>

    <junctions>
        <rectangular-lane-cut value="true"/>
    </junctions>

    <report>
        <aggregate-warnings value="5"/>
    </report>

</configuration>
-->
<net xmlns:xsi="http://www.w3.org/2001/XMLSchema-instance" version="1.9" junctionCornerDetail="5" rectangularLaneCut="true" limitTurnSpeed="5.50" xsi:noNamespaceSchemaLocation="http://sumo.dlr.de/xsd/net_file.xsd">
  <location netOffset="1.56,275.08" convBoundary="0.00,0.00,1102.73,1476.34" origBoundary="-1.56,-275.08,1101.18,1201.26" projParameter="!"/>
  <type id="bidirectional" priority="1" speed="1.39" disallow="pedestrian tram rail_urban rail rail_electric rail_fast ship" width="3.65"/>
  <type id="border" priority="0" speed="1.39" disallow="all" discard="1" width="0.10"/>
  <type id="driving" priority="1" speed="13.89" disallow="pedestrian tram rail_urban rail rail_electric rail_fast ship" width="3.65"/>
  <type id="entry" priority="1" speed="22.22" disallow="pedestrian tram rail_urban rail rail_electric rail_fast ship" width="3.65"/>
  <type id="exit" priority="1" speed="22.22" disallow="pedestrian tram rail_urban rail rail_electric rail_fast ship" width="3.65"/>
  <type id="median" priority="0" speed="1.39" disallow="all" discard="1" width="0.10"/>
  <type id="mwyEntry" priority="1" speed="22.22" allow="private emergency authority army vip passenger hov taxi bus coach delivery truck trailer motorcycle evehicle custom1 custom2" width="3.65"/>
  <type id="mwyExit" priority="1" speed="22.22" allow="private emergency authority army vip passenger hov taxi bus coach delivery truck trailer motorcycle evehicle custom1 custom2" width="3.65"/>
  <type id="none" priority="0" speed="1.39" disallow="all" discard="1" width="1.00"/>
  <type id="offRamp" priority="1" speed="22.22" allow="private emergency authority army vip passenger hov taxi bus coach delivery truck trailer motorcycle evehicle custom1 custom2" width="3.65"/>
  <type id="onRamp" priority="1" speed="22.22" allow="private emergency authority army vip passenger hov taxi bus coach delivery truck trailer motorcycle evehicle custom1 custom2" width="3.65"/>
  <type id="parking" priority="1" speed="1.39" disallow="pedestrian tram rail_urban rail rail_electric rail_fast ship" width="2.50"/>
  <type id="rail" priority="3" speed="33.33" allow="rail_urban rail rail_electric rail_fast" width="3.65"/>
  <type id="restricted" priority="0" speed="13.89" disallow="all" width="3.65"/>
  <type id="roadWorks" priority="0" speed="1.39" allow="authority" width="3.65"/>
  <type id="shoulder" priority="0" speed="1.39" disallow="all" discard="1" width="1.00"/>
  <type id="special1" priority="1" speed="22.22" allow="custom1" discard="1" width="3.65"/>
  <type id="special2" priority="1" speed="22.22" allow="custom2" discard="1" width="3.65"/>
  <type id="special3" priority="1" speed="22.22" allow="custom1 custom2" discard="1" width="3.65"/>
  <type id="stop" priority="1" speed="13.89" disallow="pedestrian tram rail_urban rail rail_electric rail_fast ship" width="3.65"/>
  <type id="tram" priority="2" speed="13.89" allow="tram" width="3.65"/>
  <edge id=":0_0" function="internal">
    <lane id=":0_0_0" index="0" disallow="pedestrian tram rail_urban rail rail_electric rail_fast ship" speed="15.28" length="104.31" width="3.75" shape="1011.36,437.95 992.39,448.93 963.20,466.32 935.70,482.90 921.82,491.44"/>
  </edge>
  <edge id=":0_1" function="internal">
    <lane id=":0_1_0" index="0" disallow="pedestrian tram rail_urban rail rail_electric rail_fast ship" speed="22.22" length="104.39" width="3.75" shape="1011.36,437.95 919.73,487.90"/>
    <lane id=":0_1_1" index="1" disallow="pedestrian tram rail_urban rail rail_electric rail_fast ship" speed="22.22" length="104.39" width="3.75" shape="1009.58,434.65 917.92,484.61"/>
    <lane id=":0_1_2" index="2" disallow="pedestrian tram rail_urban rail rail_electric rail_fast ship" speed="22.22" length="104.39" width="3.75" shape="1007.79,431.36 916.11,481.33"/>
  </edge>
  <edge id=":1_0" function="internal">
    <lane id=":1_0_0" index="0" disallow="pedestrian tram rail_urban rail rail_electric rail_fast ship" speed="16.67" length="40.08" width="3.75" shape="422.14,826.21 413.41,834.26 405.19,842.87 398.61,850.45 394.78,855.41"/>
  </edge>
  <edge id=":1_1" function="internal">
    <lane id=":1_1_0" index="0" disallow="pedestrian tram rail_urban rail rail_electric rail_fast ship" speed="22.22" length="40.38" width="3.75" shape="422.14,826.21 391.27,852.22"/>
    <lane id=":1_1_1" index="1" disallow="pedestrian tram rail_urban rail rail_electric rail_fast ship" speed="22.22" length="40.38" width="3.75" shape="419.73,823.34 388.85,849.36"/>
    <lane id=":1_1_2" index="2" disallow="pedestrian tram rail_urban rail rail_electric rail_fast ship" speed="22.22" length="40.38" width="3.75" shape="417.32,820.47 386.43,846.49"/>
  </edge>
  <edge id=":10_0" function="internal">
    <lane id=":10_0_0" index="0" disallow="pedestrian tram rail_urban rail rail_electric rail_fast ship" speed="11.11" length="28.22" width="3.75" shape="342.42,400.71,13.66 370.45,404.03,13.62"/>
  </edge>
  <edge id=":10_1" function="internal">
    <lane id=":10_1_0" index="0" disallow="pedestrian tram rail_urban rail rail_electric rail_fast ship" speed="12.50" length="28.98" width="3.75" shape="342.42,400.71,13.66 348.23,401.90,13.64 356.51,404.06,13.62 364.73,406.48,13.59 370.33,408.43,13.58"/>
  </edge>
  <edge id=":11_0" function="internal">
    <lane id=":11_0_0" index="0" disallow="pedestrian tram rail_urban rail rail_electric rail_fast ship" speed="15.28" length="30.74" width="3.75" shape="928.95,1320.49,19.97 931.13,1324.81,19.97 934.47,1330.78,19.98 939.32,1337.97,19.99 946.00,1345.93,20.00"/>
  </edge>
  <edge id=":11_1" function="internal">
    <lane id=":11_1_0" index="0" disallow="pedestrian tram rail_urban rail rail_electric rail_fast ship" speed="22.22" length="29.90" width="3.75" shape="925.51,1324.15,20.00 946.00,1345.93,20.00"/>
    <lane id=":11_1_1" index="1" disallow="pedestrian tram rail_urban rail rail_electric rail_fast ship" speed="22.22" length="29.90" width="3.75" shape="922.78,1326.72,20.00 943.27,1348.50,20.00"/>
    <lane id=":11_1_2" index="2" disallow="pedestrian tram rail_urban rail rail_electric rail_fast ship" speed="22.22" length="29.90" width="3.75" shape="920.05,1329.29,20.00 940.54,1351.07,20.00"/>
  </edge>
  <edge id=":12_0" function="internal">
    <lane id=":12_0_0" index="0" disallow="pedestrian tram rail_urban rail rail_electric rail_fast ship" speed="16.67" length="25.23" width="3.75" shape="521.36,929.77,20.00 520.89,925.46,20.00 519.23,920.15,20.00 516.05,914.02,20.00 510.99,907.28,20.00"/>
  </edge>
  <edge id=":12_1" function="internal">
    <lane id=":12_1_0" index="0" disallow="pedestrian tram rail_urban rail rail_electric rail_fast ship" speed="22.22" length="23.53" width="3.75" shape="526.53,924.98,20.00 510.99,907.28,20.00"/>
    <lane id=":12_1_1" index="1" disallow="pedestrian tram rail_urban rail rail_electric rail_fast ship" speed="22.22" length="23.53" width="3.75" shape="529.35,922.49,20.00 513.82,904.81,20.00"/>
    <lane id=":12_1_2" index="2" disallow="pedestrian tram rail_urban rail rail_electric rail_fast ship" speed="22.22" length="23.53" width="3.75" shape="532.16,920.01,20.00 516.64,902.35,20.00"/>
  </edge>
  <edge id=":13_0" function="internal">
    <lane id=":13_0_0" index="0" disallow="pedestrian tram rail_urban rail rail_electric rail_fast ship" speed="15.97" length="46.57" width="3.75" shape="843.46,499.04,0.03 850.30,496.55,0.02 861.68,491.96,0.02 874.61,486.27,0.01 886.14,480.51"/>
  </edge>
  <edge id=":13_1" function="internal">
    <lane id=":13_1_0" index="0" disallow="pedestrian tram rail_urban rail rail_electric rail_fast ship" speed="22.22" length="45.99" width="3.75" shape="845.99,502.98 886.14,480.51"/>
    <lane id=":13_1_1" index="1" disallow="pedestrian tram rail_urban rail rail_electric rail_fast ship" speed="22.22" length="45.99" width="3.75" shape="847.84,506.25 887.96,483.79"/>
    <lane id=":13_1_2" index="2" disallow="pedestrian tram rail_urban rail rail_electric rail_fast ship" speed="22.22" length="45.99" width="3.75" shape="849.68,509.51 889.78,487.07"/>
  </edge>
  <edge id=":14_0" function="internal">
    <lane id=":14_0_0" index="0" disallow="pedestrian tram rail_urban rail rail_electric rail_fast ship" speed="18.06" length="29.74" width="3.75" shape="168.98,391.39,19.99 169.93,396.00,19.99 171.90,402.26,20.00 175.29,409.87,20.00 180.49,418.57,20.00"/>
  </edge>
  <edge id=":14_1" function="internal">
    <lane id=":14_1_0" index="0" disallow="pedestrian tram rail_urban rail rail_electric rail_fast ship" speed="22.22" length="28.58" width="3.75" shape="164.42,394.95,20.00 180.49,418.57,20.00"/>
    <lane id=":14_1_1" index="1" disallow="pedestrian tram rail_urban rail rail_electric rail_fast ship" speed="22.22" length="28.58" width="3.75" shape="161.32,397.05,20.00 177.39,420.68,20.00"/>
    <lane id=":14_1_2" index="2" disallow="pedestrian tram rail_urban rail rail_electric rail_fast ship" speed="22.22" length="28.58" width="3.75" shape="158.21,399.16,20.00 174.29,422.79,20.00"/>
  </edge>
  <edge id=":14.13_0" function="internal">
    <lane id=":14.13_0_0" index="0" disallow="pedestrian tram rail_urban rail rail_electric rail_fast ship" speed="22.22" length="0.30" width="3.75" shape="467.25,820.47,20.00 467.44,820.70,20.00"/>
    <lane id=":14.13_0_1" index="1" disallow="pedestrian tram rail_urban rail rail_electric rail_fast ship" speed="22.22" length="0.30" width="3.75" shape="464.33,822.83,20.00 464.52,823.06,20.00"/>
    <lane id=":14.13_0_2" index="2" disallow="pedestrian tram rail_urban rail rail_electric rail_fast ship" speed="22.22" length="0.30" width="3.75" shape="461.41,825.18,20.00 461.60,825.42,20.00"/>
  </edge>
  <edge id=":15_0" function="internal">
    <lane id=":15_0_0" index="0" disallow="pedestrian tram rail_urban rail rail_electric rail_fast ship" speed="18.06" length="43.90" width="3.75" shape="261.94,969.25,0.09 256.06,972.81,0.08 246.55,979.01,0.05 235.74,986.60,0.03 225.96,994.34"/>
  </edge>
  <edge id=":15_1" function="internal">
    <lane id=":15_1_0" index="0" disallow="pedestrian tram rail_urban rail rail_electric rail_fast ship" speed="22.22" length="43.34" width="3.75" shape="258.67,965.92 225.96,994.34"/>
    <lane id=":15_1_1" index="1" disallow="pedestrian tram rail_urban rail rail_electric rail_fast ship" speed="22.22" length="43.34" width="3.75" shape="256.22,963.09 223.50,991.51"/>
    <lane id=":15_1_2" index="2" disallow="pedestrian tram rail_urban rail rail_electric rail_fast ship" speed="22.22" length="43.34" width="3.75" shape="253.76,960.26 221.04,988.68"/>
  </edge>
  <edge id=":19.18_0" function="internal">
    <lane id=":19.18_0_0" index="0" disallow="pedestrian tram rail_urban rail rail_electric rail_fast ship" speed="22.22" length="0.30" width="3.75" shape="449.74,835.00,20.00 449.55,834.76,20.00"/>
    <lane id=":19.18_0_1" index="1" disallow="pedestrian tram rail_urban rail rail_electric rail_fast ship" speed="22.22" length="0.30" width="3.75" shape="452.66,832.64,20.00 452.47,832.41,20.00"/>
    <lane id=":19.18_0_2" index="2" disallow="pedestrian tram rail_urban rail rail_electric rail_fast ship" speed="22.22" length="0.30" width="3.75" shape="455.57,830.28,20.00 455.39,830.05,20.00"/>
  </edge>
  <edge id=":2_0" function="internal">
    <lane id=":2_0_0" index="0" disallow="pedestrian tram rail_urban rail rail_electric rail_fast ship" speed="19.44" length="38.37" width="3.75" shape="87.11,1085.54 95.47,1077.49 103.06,1069.11 109.06,1061.81 112.65,1056.99"/>
  </edge>
  <edge id=":2_1" function="internal">
    <lane id=":2_1_0" index="0" disallow="pedestrian tram rail_urban rail rail_electric rail_fast ship" speed="22.22" length="38.62" width="3.75" shape="87.11,1085.54 116.15,1060.09"/>
    <lane id=":2_1_1" index="1" disallow="pedestrian tram rail_urban rail rail_electric rail_fast ship" speed="22.22" length="38.62" width="3.75" shape="89.58,1088.36 118.62,1062.91"/>
    <lane id=":2_1_2" index="2" disallow="pedestrian tram rail_urban rail rail_electric rail_fast ship" speed="22.22" length="38.62" width="3.75" shape="92.06,1091.18 121.09,1065.73"/>
  </edge>
  <edge id=":2.1_0" function="internal">
    <lane id=":2.1_0_0" index="0" disallow="pedestrian tram rail_urban rail rail_electric rail_fast ship" speed="22.22" length="0.30" width="3.75" shape="604.85,680.19 604.62,680.37"/>
    <lane id=":2.1_0_1" index="1" disallow="pedestrian tram rail_urban rail rail_electric rail_fast ship" speed="22.22" length="0.30" width="3.75" shape="602.65,677.16 602.41,677.33"/>
    <lane id=":2.1_0_2" index="2" disallow="pedestrian tram rail_urban rail rail_electric rail_fast ship" speed="22.22" length="0.30" width="3.75" shape="600.45,674.12 600.20,674.30"/>
  </edge>
  <edge id=":23.22_0" function="internal">
    <lane id=":23.22_0_0" index="0" disallow="pedestrian tram rail_urban rail rail_electric rail_fast ship" speed="22.22" length="0.30" width="3.75" shape="477.38,1183.62,9.06 477.10,1183.53,9.05"/>
  </edge>
  <edge id=":26.25_0" function="internal">
    <lane id=":26.25_0_0" index="0" disallow="pedestrian tram rail_urban rail rail_electric rail_fast ship" speed="16.67" length="0.30" width="3.75" shape="176.45,625.89,11.23 176.44,625.59,11.24"/>
  </edge>
  <edge id=":29.28_0" function="internal">
    <lane id=":29.28_0_0" index="0" disallow="pedestrian tram rail_urban rail rail_electric rail_fast ship" speed="11.11" length="0.30" width="3.75" shape="531.72,423.28,9.31 532.01,423.34,9.31"/>
  </edge>
  <edge id=":3_0" function="internal">
    <lane id=":3_0_0" index="0" disallow="pedestrian tram rail_urban rail rail_electric rail_fast ship" speed="16.67" length="46.20" width="3.75" shape="87.08,280.69,20.00 94.72,291.01,20.00 103.60,301.84,20.00 111.59,310.98,20.00 116.54,316.24,20.00"/>
  </edge>
  <edge id=":3_1" function="internal">
    <lane id=":3_1_0" index="0" disallow="pedestrian tram rail_urban rail rail_electric rail_fast ship" speed="22.22" length="46.43" width="3.75" shape="87.08,280.69,20.00 113.08,319.16,20.00"/>
    <lane id=":3_1_1" index="1" disallow="pedestrian tram rail_urban rail rail_electric rail_fast ship" speed="22.22" length="46.43" width="3.75" shape="83.98,282.79,20.00 109.97,321.26,20.00"/>
    <lane id=":3_1_2" index="2" disallow="pedestrian tram rail_urban rail rail_electric rail_fast ship" speed="22.22" length="46.43" width="3.75" shape="80.87,284.89,20.00 106.86,323.36,20.00"/>
  </edge>
  <edge id=":31.30_0" function="internal">
    <lane id=":31.30_0_0" index="0" disallow="pedestrian tram rail_urban rail rail_electric rail_fast ship" speed="8.33" length="0.29" width="3.75" shape="767.83,768.27,8.34 767.81,768.56,8.35"/>
  </edge>
  <edge id=":33.32_0" function="internal">
    <lane id=":33.32_0_0" index="0" disallow="pedestrian tram rail_urban rail rail_electric rail_fast ship" speed="11.11" length="0.27" width="3.75" shape="407.86,956.84,9.52 408.07,957.00,9.55"/>
  </edge>
  <edge id=":35.34_0" function="internal">
    <lane id=":35.34_0_0" index="0" disallow="pedestrian tram rail_urban rail rail_electric rail_fast ship" speed="9.72" length="0.30" width="3.75" shape="153.98,682.89,6.87 154.06,682.60,6.87"/>
  </edge>
  <edge id=":37.36_0" function="internal">
    <lane id=":37.36_0_0" index="0" disallow="pedestrian tram rail_urban rail rail_electric rail_fast ship" speed="13.89" length="0.30" width="3.75" shape="850.97,190.89,13.07 850.97,190.59,13.07"/>
  </edge>
  <edge id=":39.38_0" function="internal">
    <lane id=":39.38_0_0" index="0" disallow="pedestrian tram rail_urban rail rail_electric rail_fast ship" speed="13.89" length="0.29" width="3.75" shape="533.28,718.20,7.10 533.22,718.49,7.09"/>
  </edge>
  <edge id=":4_0" function="internal">
    <lane id=":4_0_0" index="0" disallow="pedestrian tram rail_urban rail rail_electric rail_fast ship" speed="22.22" length="51.21" width="3.75" shape="921.94,1353.55,20.00 912.21,1344.03,20.00 900.52,1333.51,20.00 890.01,1324.48,20.00 883.79,1319.43,20.00"/>
  </edge>
  <edge id=":4_1" function="internal">
    <lane id=":4_1_0" index="0" disallow="pedestrian tram rail_urban rail rail_electric rail_fast ship" speed="22.22" length="51.39" width="3.75" shape="921.94,1353.55,20.00 886.73,1316.11,20.00"/>
    <lane id=":4_1_1" index="1" disallow="pedestrian tram rail_urban rail rail_electric rail_fast ship" speed="22.22" length="51.39" width="3.75" shape="924.68,1350.98,20.00 889.46,1313.54,20.00"/>
    <lane id=":4_1_2" index="2" disallow="pedestrian tram rail_urban rail rail_electric rail_fast ship" speed="22.22" length="51.39" width="3.75" shape="927.41,1348.41,20.00 892.20,1310.98,20.00"/>
  </edge>
  <edge id=":5_0" function="internal">
    <lane id=":5_0_0" index="0" disallow="pedestrian tram rail_urban rail rail_electric rail_fast ship" speed="22.22" length="37.96" width="3.75" shape="142.58,1073.98,0.13 137.29,1076.68,0.11 129.28,1081.44,0.08 120.03,1087.69,0.04 110.98,1094.85"/>
  </edge>
  <edge id=":5_1" function="internal">
    <lane id=":5_1_0" index="0" disallow="pedestrian tram rail_urban rail rail_electric rail_fast ship" speed="22.22" length="37.16" width="3.75" shape="138.92,1070.36 110.98,1094.85"/>
    <lane id=":5_1_1" index="1" disallow="pedestrian tram rail_urban rail rail_electric rail_fast ship" speed="22.22" length="37.16" width="3.75" shape="136.45,1067.54 108.51,1092.03"/>
    <lane id=":5_1_2" index="2" disallow="pedestrian tram rail_urban rail rail_electric rail_fast ship" speed="22.22" length="37.16" width="3.75" shape="133.98,1064.72 106.04,1089.21"/>
  </edge>
  <edge id=":6_0" function="internal">
    <lane id=":6_0_0" index="0" disallow="pedestrian tram rail_urban rail rail_electric rail_fast ship" speed="22.22" length="3.00" width="3.75" shape="676.10,1234.07,13.65 673.19,1233.33,13.57"/>
  </edge>
  <edge id=":6_1" function="internal">
    <lane id=":6_1_0" index="0" disallow="pedestrian tram rail_urban rail rail_electric rail_fast ship" speed="15.97" length="3.00" width="3.75" shape="676.10,1234.07,13.65 673.19,1233.33,13.61"/>
  </edge>
  <edge id=":7_0" function="internal">
    <lane id=":7_0_0" index="0" disallow="pedestrian tram rail_urban rail rail_electric rail_fast ship" speed="19.44" length="61.74" width="3.75" shape="85.88,327.21,20.00 81.29,318.72,20.00 72.74,303.48,20.00 63.03,286.74,20.00 54.98,273.77,20.00"/>
  </edge>
  <edge id=":7_1" function="internal">
    <lane id=":7_1_0" index="0" disallow="pedestrian tram rail_urban rail rail_electric rail_fast ship" speed="22.22" length="61.38" width="3.75" shape="89.33,324.63,20.00 54.98,273.77,20.00"/>
    <lane id=":7_1_1" index="1" disallow="pedestrian tram rail_urban rail rail_electric rail_fast ship" speed="22.22" length="61.38" width="3.75" shape="92.44,322.54,20.00 58.08,271.67,20.00"/>
    <lane id=":7_1_2" index="2" disallow="pedestrian tram rail_urban rail rail_electric rail_fast ship" speed="22.22" length="61.38" width="3.75" shape="95.55,320.44,20.00 61.19,269.58,20.00"/>
  </edge>
  <edge id=":8_0" function="internal">
    <lane id=":8_0_0" index="0" disallow="pedestrian tram rail_urban rail rail_electric rail_fast ship" speed="16.67" length="3.00" width="3.75" shape="167.99,876.76,6.07 168.37,873.79,6.16"/>
  </edge>
  <edge id=":8_1" function="internal">
    <lane id=":8_1_0" index="0" disallow="pedestrian tram rail_urban rail rail_electric rail_fast ship" speed="15.28" length="3.00" width="3.75" shape="167.99,876.76,6.07 168.38,873.78,6.12"/>
  </edge>
  <edge id=":8.7_0" function="internal">
    <lane id=":8.7_0_0" index="0" disallow="pedestrian tram rail_urban rail rail_electric rail_fast ship" speed="22.22" length="0.30" width="3.75" shape="591.23,661.97 591.48,661.79"/>
    <lane id=":8.7_0_1" index="1" disallow="pedestrian tram rail_urban rail rail_electric rail_fast ship" speed="22.22" length="0.30" width="3.75" shape="593.44,665.00 593.68,664.82"/>
    <lane id=":8.7_0_2" index="2" disallow="pedestrian tram rail_urban rail rail_electric rail_fast ship" speed="22.22" length="0.30" width="3.75" shape="595.65,668.03 595.89,667.86"/>
  </edge>
  <edge id=":9_0" function="internal">
    <lane id=":9_0_0" index="0" disallow="pedestrian tram rail_urban rail rail_electric rail_fast ship" speed="16.67" length="54.11" width="3.75" shape="886.42,475.19 894.28,472.09 907.96,466.28 923.21,459.41 935.82,453.16"/>
  </edge>
  <edge id=":9_1" function="internal">
    <lane id=":9_1_0" index="0" disallow="pedestrian tram rail_urban rail rail_electric rail_fast ship" speed="22.22" length="53.63" width="3.75" shape="888.82,479.03 935.82,453.16"/>
    <lane id=":9_1_1" index="1" disallow="pedestrian tram rail_urban rail rail_electric rail_fast ship" speed="22.22" length="53.63" width="3.75" shape="890.63,482.31 937.62,456.45"/>
    <lane id=":9_1_2" index="2" disallow="pedestrian tram rail_urban rail rail_electric rail_fast ship" speed="22.22" length="53.63" width="3.75" shape="892.45,485.59 939.42,459.74"/>
  </edge>
  <edge id="-0" from="0.begin" to="0" priority="1" type="driving" shape="1102.73,376.70 1101.52,377.41 1100.28,378.14 1099.03,378.87 1097.75,379.61 1096.45,380.36 1095.13,381.12 1093.78,381.89 1092.42,382.67 1091.04,383.46 1089.63,384.26 1088.21,385.07 1086.76,385.89 1085.30,386.72 1083.81,387.56 1082.31,388.40 1080.78,389.26 1079.24,390.12 1077.68,391.00 1076.10,391.88 1074.49,392.77 1072.87,393.67 1071.24,394.58 1069.58,395.50 1067.90,396.43 1066.21,397.36 1064.50,398.31 1062.77,399.26 1061.02,400.22 1059.26,401.19 1057.48,402.17 1055.68,403.16 1053.86,404.16 1052.03,405.16 1050.18,406.17 1048.31,407.19 1046.43,408.22 1044.53,409.26 1042.61,410.30 1040.68,411.36 1038.74,412.42 1036.77,413.49 1034.80,414.56 1032.80,415.65 1030.79,416.74 1028.77,417.84 1026.73,418.95 1024.68,420.06 1022.61,421.18 1020.53,422.31 1018.43,423.45 1016.32,424.59 1014.20,425.75 1012.06,426.91 1009.91,428.07 1007.75,429.25 1005.57,430.43 1003.38,431.61">
    <lane id="-0_0" index="0" disallow="pedestrian tram rail_urban rail rail_electric rail_fast ship" speed="22.22" length="109.71" width="3.75" shape="1107.48,384.79 1106.26,385.50 1105.01,386.23 1103.74,386.97 1102.44,387.72 1101.13,388.48 1099.80,389.25 1098.45,390.03 1097.07,390.81 1095.68,391.61 1094.27,392.41 1092.83,393.23 1091.38,394.05 1089.91,394.88 1088.41,395.72 1086.90,396.57 1085.37,397.43 1083.82,398.30 1082.25,399.18 1080.66,400.07 1079.05,400.96 1077.43,401.87 1075.78,402.78 1074.12,403.70 1072.44,404.63 1070.74,405.57 1069.03,406.52 1067.29,407.47 1065.54,408.44 1063.77,409.41 1061.99,410.39 1060.19,411.38 1058.37,412.38 1056.53,413.38 1054.68,414.40 1052.81,415.42 1050.92,416.45 1049.02,417.49 1047.10,418.53 1045.17,419.59 1043.22,420.65 1041.26,421.72 1039.28,422.80 1037.28,423.88 1035.27,424.97 1033.25,426.08 1031.21,427.18 1029.15,428.30 1027.09,429.42 1025.00,430.55 1022.91,431.69 1020.79,432.83 1018.67,433.99 1016.53,435.15 1014.38,436.31 1012.22,437.49 1011.36,437.95" type="driving"/>
    <lane id="-0_1" index="1" disallow="pedestrian tram rail_urban rail rail_electric rail_fast ship" speed="22.22" length="109.71" width="3.75" shape="1105.58,381.55 1104.36,382.27 1103.12,382.99 1101.85,383.73 1100.57,384.48 1099.26,385.23 1097.93,386.00 1096.58,386.77 1095.21,387.56 1093.82,388.35 1092.41,389.15 1090.98,389.96 1089.53,390.79 1088.06,391.62 1086.57,392.46 1085.06,393.31 1083.54,394.16 1081.99,395.03 1080.42,395.91 1078.83,396.79 1077.23,397.69 1075.61,398.59 1073.96,399.50 1072.30,400.42 1070.63,401.35 1068.93,402.29 1067.22,403.23 1065.48,404.19 1063.73,405.15 1061.97,406.12 1060.18,407.10 1058.38,408.09 1056.56,409.09 1054.73,410.09 1052.88,411.11 1051.01,412.13 1049.12,413.16 1047.22,414.20 1045.31,415.24 1043.38,416.29 1041.43,417.36 1039.46,418.43 1037.48,419.50 1035.49,420.59 1033.48,421.68 1031.46,422.78 1029.42,423.89 1027.36,425.00 1025.30,426.13 1023.21,427.26 1021.12,428.39 1019.01,429.54 1016.88,430.69 1014.74,431.85 1012.59,433.02 1010.43,434.19 1009.58,434.65" type="driving"/>
    <lane id="-0_2" index="2" disallow="pedestrian tram rail_urban rail rail_electric rail_fast ship" speed="22.22" length="109.71" width="3.75" shape="1103.68,378.32 1102.47,379.03 1101.23,379.76 1099.97,380.49 1098.69,381.23 1097.38,381.98 1096.06,382.75 1094.72,383.52 1093.35,384.30 1091.97,385.09 1090.56,385.89 1089.13,386.70 1087.69,387.52 1086.22,388.35 1084.73,389.19 1083.23,390.04 1081.70,390.89 1080.16,391.76 1078.59,392.63 1077.01,393.52 1075.41,394.41 1073.79,395.31 1072.15,396.22 1070.49,397.14 1068.81,398.07 1067.12,399.00 1065.40,399.95 1063.67,400.90 1061.93,401.87 1060.16,402.84 1058.38,403.82 1056.58,404.80 1054.76,405.80 1052.93,406.80 1051.08,407.82 1049.21,408.84 1047.33,409.87 1045.43,410.90 1043.51,411.95 1041.58,413.00 1039.63,414.06 1037.67,415.13 1035.69,416.21 1033.70,417.29 1031.69,418.39 1029.67,419.49 1027.63,420.59 1025.57,421.71 1023.51,422.83 1021.43,423.96 1019.33,425.10 1017.22,426.24 1015.09,427.39 1012.96,428.55 1010.81,429.72 1008.64,430.89 1007.79,431.36" type="driving"/>
  </edge>
  <edge id="-1" from="0" to="2.1" priority="1" type="driving" shape="1003.38,431.61 1001.90,432.41 1000.42,433.22 998.94,434.02 997.45,434.83 995.95,435.64 994.45,436.46 992.94,437.27 991.43,438.09 989.91,438.92 988.38,439.75 986.85,440.58 985.32,441.41 983.78,442.24 982.23,443.08 980.68,443.92 979.13,444.77 977.57,445.62 976.00,446.47 974.43,447.32 972.86,448.17 971.28,449.03 969.69,449.89 968.10,450.76 966.51,451.63 964.91,452.50 963.30,453.37 961.70,454.24 960.08,455.12 958.47,456.00 956.84,456.89 955.22,457.77 953.59,458.66 951.95,459.55 950.32,460.45 948.67,461.34 947.03,462.24 945.37,463.14 943.72,464.05 942.06,464.95 940.40,465.86 938.73,466.78 937.06,467.69 935.38,468.61 933.71,469.53 932.02,470.45 930.34,471.37 928.65,472.30 926.96,473.23 925.26,474.16 923.56,475.09 921.86,476.03 920.15,476.97 918.44,477.91 916.73,478.85 915.01,479.80 913.29,480.74 911.57,481.69 909.84,482.65 908.11,483.60 906.38,484.56 904.65,485.51 902.91,486.48 901.17,487.44 899.43,488.40 897.68,489.37 895.93,490.34 894.18,491.31 892.43,492.29 890.67,493.26 888.91,494.24 887.15,495.22 885.39,496.20 883.62,497.18 881.85,498.17 880.08,499.16 878.31,500.15 876.53,501.14 874.76,502.13 872.98,503.13 871.19,504.12 869.41,505.12 867.63,506.12 865.84,507.13 864.05,508.13 862.26,509.14 860.47,510.15 858.67,511.16 856.88,512.17 855.08,513.18 853.28,514.20 851.48,515.21 849.68,516.23 847.87,517.25 846.07,518.28 844.26,519.30 842.46,520.33 840.65,521.35 838.84,522.38 837.03,523.41 835.22,524.44 833.40,525.48 831.59,526.51 829.77,527.55 827.96,528.59 826.14,529.63 824.32,530.67 822.51,531.71 820.69,532.75 818.87,533.80 817.05,534.84 815.23,535.89 813.41,536.94 811.58,537.99 809.76,539.05 807.94,540.10 806.12,541.15 804.29,542.21 802.47,543.27 800.65,544.33 798.82,545.39 797.00,546.45 795.18,547.51 793.35,548.57 791.53,549.64 789.71,550.71 787.88,551.77 786.06,552.84 784.24,553.91 782.42,554.98 780.60,556.05 778.77,557.13 776.95,558.20 775.13,559.27 773.31,560.35 771.49,561.43 769.67,562.51 767.86,563.58 766.04,564.66 764.22,565.75 762.41,566.83 760.59,567.91 758.78,568.99 756.96,570.08 755.15,571.16 753.34,572.25 751.53,573.34 749.72,574.43 747.92,575.52 746.11,576.61 744.30,577.70 742.50,578.79 740.70,579.88 738.90,580.97 737.10,582.07 735.30,583.16 733.51,584.25 731.71,585.35 729.92,586.45 728.13,587.54 726.34,588.64 724.55,589.74 722.77,590.84 720.98,591.94 719.20,593.04 717.42,594.14 715.64,595.24 713.87,596.34 712.10,597.44 710.32,598.54 708.56,599.65 706.79,600.75 705.03,601.85 703.26,602.96 701.51,604.06 699.75,605.17 697.99,606.27 696.24,607.38 694.49,608.49 692.75,609.59 691.00,610.70 689.26,611.81 687.53,612.91 685.79,614.02 684.06,615.13 682.33,616.24 680.61,617.35 678.88,618.45 677.16,619.56 675.45,620.67 673.73,621.78 672.02,622.89 670.32,624.00 668.61,625.11 666.91,626.22 665.22,627.33 663.52,628.44 661.83,629.55 660.15,630.66 658.47,631.77 656.79,632.88 655.11,633.99 653.44,635.10 651.77,636.21 650.11,637.32 648.45,638.43 646.80,639.54 645.14,640.64 643.50,641.75 641.85,642.86 640.22,643.97 638.58,645.08 636.95,646.19 635.32,647.30 633.70,648.41 632.08,649.51 630.47,650.62 628.86,651.73 627.26,652.84 625.66,653.94 624.07,655.05 622.48,656.15 620.89,657.26 619.31,658.37 617.73,659.47 616.16,660.58 614.60,661.68 613.04,662.78 611.48,663.89 609.93,664.99 608.38,666.09 606.84,667.19 605.31,668.30 603.78,669.40 602.26,670.50 600.74,671.60 599.22,672.70">