<?xml version='1.0' encoding='UTF-8'?>
<!-- generated on 2022-09-06 06:06:53 by Eclipse SUMO netconvert Version 1.13.0
<configuration xmlns:xsi="http://www.w3.org/2001/XMLSchema-instance" xsi:noNamespaceSchemaLocation="http://sumo.dlr.de/xsd/netconvertConfiguration.xsd">

    <input>
        <opendrive-files value="map\1\56633727\56633727.xodr"/>
    </input>

    <output>
        <output-file value="C:\Users\LinGe\AppData\Local\Temp\tmpcyt118o3\56633727.net.xml"/>
    </output>

    <processing>
        <geometry.max-grade.fix value="false"/>
    </processing>

    <tls_building>
        <tls.left-green.time value="0"/>
    </tls_building>

    <junctions>
        <rectangular-lane-cut value="true"/>
    </junctions>

    <report>
        <aggregate-warnings value="5"/>
    </report>

</configuration>
-->
<net xmlns:xsi="http://www.w3.org/2001/XMLSchema-instance" version="1.9" junctionCornerDetail="5" rectangularLaneCut="true" limitTurnSpeed="5.50" xsi:noNamespaceSchemaLocation="http://sumo.dlr.de/xsd/net_file.xsd">
  <location netOffset="1.56,101.26" convBoundary="0.00,0.00,1102.73,1302.51" origBoundary="-1.56,-101.26,1101.18,1201.26" projParameter="!"/>
  <type id="bidirectional" priority="1" speed="1.39" disallow="pedestrian tram rail_urban rail rail_electric rail_fast ship" width="3.65"/>
  <type id="border" priority="0" speed="1.39" disallow="all" discard="1" width="0.10"/>
  <type id="driving" priority="1" speed="13.89" disallow="pedestrian tram rail_urban rail rail_electric rail_fast ship" width="3.65"/>
  <type id="entry" priority="1" speed="22.22" disallow="pedestrian tram rail_urban rail rail_electric rail_fast ship" width="3.65"/>
  <type id="exit" priority="1" speed="22.22" disallow="pedestrian tram rail_urban rail rail_electric rail_fast ship" width="3.65"/>
  <type id="median" priority="0" speed="1.39" disallow="all" discard="1" width="0.10"/>
  <type id="mwyEntry" priority="1" speed="22.22" allow="private emergency authority army vip passenger hov taxi bus coach delivery truck trailer motorcycle evehicle custom1 custom2" width="3.65"/>
  <type id="mwyExit" priority="1" speed="22.22" allow="private emergency authority army vip passenger hov taxi bus coach delivery truck trailer motorcycle evehicle custom1 custom2" width="3.65"/>
  <type id="none" priority="0" speed="1.39" disallow="all" discard="1" width="1.00"/>
  <type id="offRamp" priority="1" speed="22.22" allow="private emergency authority army vip passenger hov taxi bus coach delivery truck trailer motorcycle evehicle custom1 custom2" width="3.65"/>
  <type id="onRamp" priority="1" speed="22.22" allow="private emergency authority army vip passenger hov taxi bus coach delivery truck trailer motorcycle evehicle custom1 custom2" width="3.65"/>
  <type id="parking" priority="1" speed="1.39" disallow="pedestrian tram rail_urban rail rail_electric rail_fast ship" width="2.50"/>
  <type id="rail" priority="3" speed="33.33" allow="rail_urban rail rail_electric rail_fast" width="3.65"/>
  <type id="restricted" priority="0" speed="13.89" disallow="all" width="3.65"/>
  <type id="roadWorks" priority="0" speed="1.39" allow="authority" width="3.65"/>
  <type id="shoulder" priority="0" speed="1.39" disallow="all" discard="1" width="1.00"/>
  <type id="special1" priority="1" speed="22.22" allow="custom1" discard="1" width="3.65"/>
  <type id="special2" priority="1" speed="22.22" allow="custom2" discard="1" width="3.65"/>
  <type id="special3" priority="1" speed="22.22" allow="custom1 custom2" discard="1" width="3.65"/>
  <type id="stop" priority="1" speed="13.89" disallow="pedestrian tram rail_urban rail rail_electric rail_fast ship" width="3.65"/>
  <type id="tram" priority="2" speed="13.89" allow="tram" width="3.65"/>
  <edge id=":0_0" function="internal">
    <lane id=":0_0_0" index="0" disallow="pedestrian tram rail_urban rail rail_electric rail_fast ship" speed="19.44" length="75.34" width="3.75" shape="1016.57,289.19 1003.79,300.99 986.49,317.65 970.68,333.17 962.37,341.50"/>
  </edge>
  <edge id=":0_1" function="internal">
    <lane id=":0_1_0" index="0" disallow="pedestrian tram rail_urban rail rail_electric rail_fast ship" speed="22.22" length="75.45" width="3.75" shape="1016.57,289.19 959.47,338.51"/>
    <lane id=":0_1_1" index="1" disallow="pedestrian tram rail_urban rail rail_electric rail_fast ship" speed="22.22" length="75.45" width="3.75" shape="1014.12,286.35 957.02,335.67"/>
    <lane id=":0_1_2" index="2" disallow="pedestrian tram rail_urban rail rail_electric rail_fast ship" speed="22.22" length="75.45" width="3.75" shape="1011.67,283.52 954.57,332.83"/>
  </edge>
  <edge id=":1_0" function="internal">
    <lane id=":1_0_0" index="0" disallow="pedestrian tram rail_urban rail rail_electric rail_fast ship" speed="15.97" length="31.32" width="3.75" shape="480.82,732.68 472.53,739.13 466.04,745.19 461.33,750.41 458.41,754.35"/>
  </edge>
  <edge id=":1_1" function="internal">
    <lane id=":1_1_0" index="0" disallow="pedestrian tram rail_urban rail rail_electric rail_fast ship" speed="22.22" length="31.82" width="3.75" shape="480.82,732.68 454.58,750.81"/>
    <lane id=":1_1_1" index="1" disallow="pedestrian tram rail_urban rail rail_electric rail_fast ship" speed="22.22" length="31.82" width="3.75" shape="478.66,729.62 452.48,747.71"/>
    <lane id=":1_1_2" index="2" disallow="pedestrian tram rail_urban rail rail_electric rail_fast ship" speed="22.22" length="31.82" width="3.75" shape="476.50,726.56 450.37,744.61"/>
  </edge>
  <edge id=":10_0" function="internal">
    <lane id=":10_0_0" index="0" disallow="pedestrian tram rail_urban rail rail_electric rail_fast ship" speed="16.67" length="8.01" width="3.75" shape="966.91,302.05,0.00 972.97,296.82"/>
  </edge>
  <edge id=":10_1" function="internal">
    <lane id=":10_1_0" index="0" disallow="pedestrian tram rail_urban rail rail_electric rail_fast ship" speed="22.22" length="3.69" width="3.75" shape="970.17,299.23 972.97,296.82"/>
    <lane id=":10_1_1" index="1" disallow="pedestrian tram rail_urban rail rail_electric rail_fast ship" speed="22.22" length="3.69" width="3.75" shape="972.63,302.07 975.42,299.66"/>
    <lane id=":10_1_2" index="2" disallow="pedestrian tram rail_urban rail rail_electric rail_fast ship" speed="22.22" length="3.69" width="3.75" shape="975.08,304.91 977.87,302.49"/>
  </edge>
  <edge id=":11_0" function="internal">
    <lane id=":11_0_0" index="0" disallow="pedestrian tram rail_urban rail rail_electric rail_fast ship" speed="19.44" length="47.71" width="3.75" shape="359.18,860.33,4.51 350.43,861.72,4.50 335.66,864.33,4.48 320.92,867.06,4.46 312.24,868.81,4.45"/>
  </edge>
  <edge id=":11_1" function="internal">
    <lane id=":11_1_0" index="0" disallow="pedestrian tram rail_urban rail rail_electric rail_fast ship" speed="15.28" length="47.32" width="3.75" shape="357.91,856.46,4.56 312.24,868.81,4.45"/>
  </edge>
  <edge id=":12_0" function="internal">
    <lane id=":12_0_0" index="0" disallow="pedestrian tram rail_urban rail rail_electric rail_fast ship" speed="22.22" length="33.15" width="3.75" shape="942.06,316.98,0.05 946.73,314.69,0.04 953.47,311.04,0.03 961.50,305.95,0.01 970.02,299.36"/>
  </edge>
  <edge id=":12_1" function="internal">
    <lane id=":12_1_0" index="0" disallow="pedestrian tram rail_urban rail rail_electric rail_fast ship" speed="22.22" length="32.37" width="3.75" shape="945.52,320.51 970.02,299.36"/>
    <lane id=":12_1_1" index="1" disallow="pedestrian tram rail_urban rail rail_electric rail_fast ship" speed="22.22" length="32.37" width="3.75" shape="947.97,323.35 972.47,302.20"/>
    <lane id=":12_1_2" index="2" disallow="pedestrian tram rail_urban rail rail_electric rail_fast ship" speed="22.22" length="32.37" width="3.75" shape="950.42,326.19 974.93,305.04"/>
  </edge>
  <edge id=":13_0" function="internal">
    <lane id=":13_0_0" index="0" disallow="pedestrian tram rail_urban rail rail_electric rail_fast ship" speed="15.97" length="28.73" width="3.75" shape="553.28,804.17,20.00 552.54,799.62,20.00 550.49,793.63,20.00 546.87,786.46,20.00 541.40,778.38,20.00"/>
  </edge>
  <edge id=":13_1" function="internal">
    <lane id=":13_1_0" index="0" disallow="pedestrian tram rail_urban rail rail_electric rail_fast ship" speed="22.22" length="27.25" width="3.75" shape="558.13,799.95,20.00 541.40,778.38,20.00"/>
    <lane id=":13_1_1" index="1" disallow="pedestrian tram rail_urban rail rail_electric rail_fast ship" speed="22.22" length="27.25" width="3.75" shape="561.08,797.63,20.00 544.37,776.10,20.00"/>
    <lane id=":13_1_2" index="2" disallow="pedestrian tram rail_urban rail rail_electric rail_fast ship" speed="22.22" length="27.25" width="3.75" shape="564.03,795.31,20.00 547.34,773.82,20.00"/>
  </edge>
  <edge id=":13.12_0" function="internal">
    <lane id=":13.12_0_0" index="0" disallow="pedestrian tram rail_urban rail rail_electric rail_fast ship" speed="22.22" length="0.30" width="3.75" shape="587.59,800.42,20.00 587.78,800.65,20.00"/>
    <lane id=":13.12_0_1" index="1" disallow="pedestrian tram rail_urban rail rail_electric rail_fast ship" speed="22.22" length="0.30" width="3.75" shape="584.67,802.78,20.00 584.86,803.01,20.00"/>
    <lane id=":13.12_0_2" index="2" disallow="pedestrian tram rail_urban rail rail_electric rail_fast ship" speed="22.22" length="0.30" width="3.75" shape="581.75,805.13,20.00 581.95,805.37,20.00"/>
  </edge>
  <edge id=":18.17_0" function="internal">
    <lane id=":18.17_0_0" index="0" disallow="pedestrian tram rail_urban rail rail_electric rail_fast ship" speed="22.22" length="0.30" width="3.75" shape="570.08,814.95,20.00 569.89,814.72,20.00"/>
    <lane id=":18.17_0_1" index="1" disallow="pedestrian tram rail_urban rail rail_electric rail_fast ship" speed="22.22" length="0.30" width="3.75" shape="573.00,812.59,20.00 572.81,812.36,20.00"/>
    <lane id=":18.17_0_2" index="2" disallow="pedestrian tram rail_urban rail rail_electric rail_fast ship" speed="22.22" length="0.30" width="3.75" shape="575.91,810.24,20.00 575.73,810.01,20.00"/>
  </edge>
  <edge id=":2_0" function="internal">
    <lane id=":2_0_0" index="0" disallow="pedestrian tram rail_urban rail rail_electric rail_fast ship" speed="20.83" length="24.98" width="3.75" shape="199.05,878.85 206.11,874.32,0.02 211.32,869.94,0.05 215.04,865.92,0.06 217.62,862.47,0.07"/>
  </edge>
  <edge id=":2_1" function="internal">
    <lane id=":2_1_0" index="0" disallow="pedestrian tram rail_urban rail rail_electric rail_fast ship" speed="22.22" length="25.37" width="3.75" shape="199.05,878.85 221.15,866.43"/>
    <lane id=":2_1_1" index="1" disallow="pedestrian tram rail_urban rail rail_electric rail_fast ship" speed="22.22" length="25.37" width="3.75" shape="200.88,882.12 222.99,869.69"/>
    <lane id=":2_1_2" index="2" disallow="pedestrian tram rail_urban rail rail_electric rail_fast ship" speed="22.22" length="25.37" width="3.75" shape="202.71,885.39 224.83,872.96"/>
  </edge>
  <edge id=":2.1_0" function="internal">
    <lane id=":2.1_0_0" index="0" disallow="pedestrian tram rail_urban rail rail_electric rail_fast ship" speed="22.22" length="0.30" width="3.75" shape="498.20,720.24 497.95,720.42"/>
    <lane id=":2.1_0_1" index="1" disallow="pedestrian tram rail_urban rail rail_electric rail_fast ship" speed="22.22" length="0.30" width="3.75" shape="495.99,717.21 495.75,717.38"/>
    <lane id=":2.1_0_2" index="2" disallow="pedestrian tram rail_urban rail rail_electric rail_fast ship" speed="22.22" length="0.30" width="3.75" shape="493.79,714.18 493.55,714.35"/>
  </edge>
  <edge id=":22.21_0" function="internal">
    <lane id=":22.21_0_0" index="0" disallow="pedestrian tram rail_urban rail rail_electric rail_fast ship" speed="16.67" length="0.30" width="3.75" shape="721.99,757.41,12.65 721.92,757.70,12.66"/>
  </edge>
  <edge id=":24.23_0" function="internal">
    <lane id=":24.23_0_0" index="0" disallow="pedestrian tram rail_urban rail rail_electric rail_fast ship" speed="19.44" length="0.30" width="3.75" shape="426.92,861.29,8.86 426.62,861.25,8.85"/>
  </edge>
  <edge id=":27.26_0" function="internal">
    <lane id=":27.26_0_0" index="0" disallow="pedestrian tram rail_urban rail rail_electric rail_fast ship" speed="19.44" length="0.30" width="3.75" shape="247.03,639.42,6.75 246.99,639.12,6.76"/>
  </edge>
  <edge id=":29.28_0" function="internal">
    <lane id=":29.28_0_0" index="0" disallow="pedestrian tram rail_urban rail rail_electric rail_fast ship" speed="11.11" length="0.30" width="3.75" shape="464.86,431.48,10.75 465.15,431.54,10.74"/>
  </edge>
  <edge id=":3_0" function="internal">
    <lane id=":3_0_0" index="0" disallow="pedestrian tram rail_urban rail rail_electric rail_fast ship" speed="16.67" length="84.92" width="3.75" shape="106.55,131.15,20.00 117.84,146.30,20.00 134.55,167.91,20.00 150.26,187.92,20.00 158.55,198.29,20.00"/>
  </edge>
  <edge id=":3_1" function="internal">
    <lane id=":3_1_0" index="0" disallow="pedestrian tram rail_urban rail rail_electric rail_fast ship" speed="22.22" length="85.01" width="3.75" shape="106.55,131.15,20.00 155.28,200.81,20.00"/>
    <lane id=":3_1_1" index="1" disallow="pedestrian tram rail_urban rail rail_electric rail_fast ship" speed="22.22" length="85.01" width="3.75" shape="103.48,133.30,20.00 152.21,202.96,20.00"/>
    <lane id=":3_1_2" index="2" disallow="pedestrian tram rail_urban rail rail_electric rail_fast ship" speed="22.22" length="85.01" width="3.75" shape="100.40,135.45,20.00 149.14,205.11,20.00"/>
  </edge>
  <edge id=":31.30_0" function="internal">
    <lane id=":31.30_0_0" index="0" disallow="pedestrian tram rail_urban rail rail_electric rail_fast ship" speed="11.11" length="0.29" width="3.75" shape="659.84,394.99,12.32 659.92,395.27,12.32"/>
  </edge>
  <edge id=":33.32_0" function="internal">
    <lane id=":33.32_0_0" index="0" disallow="pedestrian tram rail_urban rail rail_electric rail_fast ship" speed="22.22" length="0.30" width="3.75" shape="591.19,646.67,10.03 591.24,646.38,10.02"/>
  </edge>
  <edge id=":35.34_0" function="internal">
    <lane id=":35.34_0_0" index="0" disallow="pedestrian tram rail_urban rail rail_electric rail_fast ship" speed="9.72" length="0.26" width="3.75" shape="487.60,829.17,10.19 487.82,829.30,10.23"/>
  </edge>
  <edge id=":4_0" function="internal">
    <lane id=":4_0_0" index="0" disallow="pedestrian tram rail_urban rail rail_electric rail_fast ship" speed="16.67" length="20.79" width="3.75" shape="88.13,104.82,20.00 92.45,110.11,20.00 96.55,113.72,20.00 100.36,116.19,19.99 103.84,118.08,19.99"/>
  </edge>
  <edge id=":4_1" function="internal">
    <lane id=":4_1_0" index="0" disallow="pedestrian tram rail_urban rail rail_electric rail_fast ship" speed="22.22" length="21.10" width="3.75" shape="88.13,104.82,20.00 100.22,122.11,20.00"/>
    <lane id=":4_1_1" index="1" disallow="pedestrian tram rail_urban rail rail_electric rail_fast ship" speed="22.22" length="21.10" width="3.75" shape="85.06,106.97,20.00 97.15,124.26,20.00"/>
    <lane id=":4_1_2" index="2" disallow="pedestrian tram rail_urban rail rail_electric rail_fast ship" speed="22.22" length="21.10" width="3.75" shape="81.99,109.11,20.00 94.08,126.41,20.00"/>
  </edge>
  <edge id=":5_0" function="internal">
    <lane id=":5_0_0" index="0" disallow="pedestrian tram rail_urban rail rail_electric rail_fast ship" speed="20.83" length="111.80" width="3.75" shape="791.13,1055.94,20.00 710.63,978.36,20.00"/>
  </edge>
  <edge id=":5_1" function="internal">
    <lane id=":5_1_0" index="0" disallow="pedestrian tram rail_urban rail rail_electric rail_fast ship" speed="22.22" length="111.98" width="3.75" shape="791.13,1055.94,20.00 713.35,975.31,20.00"/>
    <lane id=":5_1_1" index="1" disallow="pedestrian tram rail_urban rail rail_electric rail_fast ship" speed="22.22" length="111.98" width="3.75" shape="793.82,1053.32,20.00 716.07,972.72,20.00"/>
    <lane id=":5_1_2" index="2" disallow="pedestrian tram rail_urban rail rail_electric rail_fast ship" speed="22.22" length="111.98" width="3.75" shape="796.50,1050.70,20.00 718.79,970.14,20.00"/>
  </edge>
  <edge id=":6_0" function="internal">
    <lane id=":6_0_0" index="0" disallow="pedestrian tram rail_urban rail rail_electric rail_fast ship" speed="22.22" length="45.00" width="3.75" shape="829.57,1095.01,20.00 820.29,1086.42,19.98 809.87,1077.71,19.95 800.68,1070.41,19.93 795.11,1066.11,19.91"/>
  </edge>
  <edge id=":6_1" function="internal">
    <lane id=":6_1_0" index="0" disallow="pedestrian tram rail_urban rail rail_electric rail_fast ship" speed="22.22" length="45.08" width="3.75" shape="829.57,1095.01,20.00 797.92,1062.88,20.00"/>
    <lane id=":6_1_1" index="1" disallow="pedestrian tram rail_urban rail rail_electric rail_fast ship" speed="22.22" length="45.08" width="3.75" shape="832.24,1092.37,20.00 800.60,1060.25,20.00"/>
    <lane id=":6_1_2" index="2" disallow="pedestrian tram rail_urban rail rail_electric rail_fast ship" speed="22.22" length="45.08" width="3.75" shape="834.90,1089.74,20.00 803.28,1057.63,20.00"/>
  </edge>
  <edge id=":7_0" function="internal">
    <lane id=":7_0_0" index="0" disallow="pedestrian tram rail_urban rail rail_electric rail_fast ship" speed="19.44" length="62.25" width="3.75" shape="781.04,1006.69,20.00 787.07,1014.32,20.00 798.29,1027.95,20.00 810.94,1042.82,20.00 821.25,1054.18,20.00"/>
  </edge>
  <edge id=":7_1" function="internal">
    <lane id=":7_1_0" index="0" disallow="pedestrian tram rail_urban rail rail_electric rail_fast ship" speed="22.22" length="61.87" width="3.75" shape="778.05,1009.92,20.00 821.25,1054.18,20.00"/>
    <lane id=":7_1_1" index="1" disallow="pedestrian tram rail_urban rail rail_electric rail_fast ship" speed="22.22" length="61.87" width="3.75" shape="775.36,1012.53,20.00 818.57,1056.81,20.00"/>
    <lane id=":7_1_2" index="2" disallow="pedestrian tram rail_urban rail rail_electric rail_fast ship" speed="22.22" length="61.87" width="3.75" shape="772.66,1015.14,20.00 815.90,1059.44,20.00"/>
  </edge>
  <edge id=":7.6_0" function="internal">
    <lane id=":7.6_0_0" index="0" disallow="pedestrian tram rail_urban rail rail_electric rail_fast ship" speed="22.22" length="0.30" width="3.75" shape="484.58,702.02 484.82,701.84"/>
    <lane id=":7.6_0_1" index="1" disallow="pedestrian tram rail_urban rail rail_electric rail_fast ship" speed="22.22" length="0.30" width="3.75" shape="486.78,705.05 487.02,704.87"/>
    <lane id=":7.6_0_2" index="2" disallow="pedestrian tram rail_urban rail rail_electric rail_fast ship" speed="22.22" length="0.30" width="3.75" shape="488.98,708.08 489.23,707.90"/>
  </edge>
  <edge id=":8_0" function="internal">
    <lane id=":8_0_0" index="0" disallow="pedestrian tram rail_urban rail rail_electric rail_fast ship" speed="20.83" length="107.03" width="3.75" shape="201.71,908.09,0.00 106.03,956.05"/>
  </edge>
  <edge id=":8_1" function="internal">
    <lane id=":8_1_0" index="0" disallow="pedestrian tram rail_urban rail rail_electric rail_fast ship" speed="22.22" length="106.78" width="3.75" shape="199.61,904.56 106.03,956.05"/>
    <lane id=":8_1_1" index="1" disallow="pedestrian tram rail_urban rail rail_electric rail_fast ship" speed="22.22" length="106.78" width="3.75" shape="197.78,901.28 104.23,952.76"/>
    <lane id=":8_1_2" index="2" disallow="pedestrian tram rail_urban rail rail_electric rail_fast ship" speed="22.22" length="106.78" width="3.75" shape="195.95,898.00 102.43,949.47"/>
  </edge>
  <edge id=":9_0" function="internal">
    <lane id=":9_0_0" index="0" disallow="pedestrian tram rail_urban rail rail_electric rail_fast ship" speed="20.83" length="72.96" width="3.75" shape="143.49,231.05,20.00 137.73,221.21,20.00 126.70,202.95,20.00 114.50,183.21,20.00 105.23,168.94,20.00"/>
  </edge>
  <edge id=":9_1" function="internal">
    <lane id=":9_1_0" index="0" disallow="pedestrian tram rail_urban rail rail_electric rail_fast ship" speed="22.22" length="72.63" width="3.75" shape="146.87,228.44,20.00 105.23,168.94,20.00"/>
    <lane id=":9_1_1" index="1" disallow="pedestrian tram rail_urban rail rail_electric rail_fast ship" speed="22.22" length="72.63" width="3.75" shape="149.94,226.29,20.00 108.30,166.79,20.00"/>
    <lane id=":9_1_2" index="2" disallow="pedestrian tram rail_urban rail rail_electric rail_fast ship" speed="22.22" length="72.63" width="3.75" shape="153.02,224.14,20.00 111.37,164.64,20.00"/>
  </edge>
  <edge id="-0" from="0.begin" to="0" priority="1" type="driving" shape="1102.73,202.87 1101.87,203.60 1100.98,204.34 1100.07,205.11 1099.13,205.89 1098.17,206.70 1097.19,207.53 1096.19,208.38 1095.16,209.25 1094.11,210.14 1093.03,211.05 1091.93,211.98 1090.81,212.93 1089.67,213.90 1088.51,214.89 1087.32,215.91 1086.11,216.94 1084.88,217.99 1083.63,219.05 1082.36,220.14 1081.06,221.25 1079.75,222.37 1078.41,223.52 1077.05,224.68 1075.67,225.86 1074.27,227.06 1072.85,228.28 1071.42,229.52 1069.96,230.77 1068.48,232.04 1066.98,233.33 1065.46,234.63 1063.92,235.96 1062.36,237.30 1060.79,238.65 1059.19,240.03 1057.57,241.42 1055.94,242.82 1054.29,244.25 1052.62,245.69 1050.93,247.14 1049.22,248.61 1047.50,250.10 1045.76,251.60 1044.00,253.12 1042.22,254.65 1040.43,256.20 1038.61,257.77 1036.78,259.34 1034.94,260.94 1033.08,262.55 1031.20,264.17 1029.30,265.81 1027.39,267.46 1025.46,269.12 1023.52,270.80 1021.56,272.49 1019.58,274.20 1017.59,275.92 1015.59,277.65 1013.57,279.40 1011.53,281.16 1009.48,282.93 1007.41,284.71">
    <lane id="-0_0" index="0" disallow="pedestrian tram rail_urban rail rail_electric rail_fast ship" speed="22.22" length="121.54" width="3.75" shape="1108.75,210.07 1107.89,210.78 1107.01,211.52 1106.10,212.28 1105.17,213.07 1104.22,213.87 1103.24,214.69 1102.24,215.54 1101.21,216.40 1100.17,217.29 1099.10,218.20 1098.00,219.13 1096.88,220.08 1095.75,221.04 1094.58,222.03 1093.40,223.04 1092.20,224.07 1090.97,225.12 1089.72,226.18 1088.45,227.27 1087.15,228.37 1085.84,229.50 1084.51,230.64 1083.15,231.80 1081.77,232.98 1080.38,234.18 1078.96,235.39 1077.52,236.63 1076.06,237.88 1074.59,239.15 1073.09,240.44 1071.57,241.74 1070.03,243.06 1068.48,244.40 1066.90,245.76 1065.31,247.13 1063.69,248.52 1062.06,249.93 1060.41,251.35 1058.74,252.79 1057.05,254.24 1055.35,255.71 1053.62,257.20 1051.88,258.70 1050.12,260.22 1048.34,261.75 1046.55,263.30 1044.74,264.86 1042.91,266.44 1041.07,268.03 1039.20,269.64 1037.32,271.26 1035.43,272.90 1033.52,274.55 1031.59,276.22 1029.65,277.89 1027.69,279.59 1025.71,281.29 1023.72,283.01 1021.72,284.75 1019.70,286.49 1017.66,288.25 1016.57,289.19" type="driving"/>
    <lane id="-0_1" index="1" disallow="pedestrian tram rail_urban rail rail_electric rail_fast ship" speed="22.22" length="121.54" width="3.75" shape="1106.34,207.19 1105.48,207.91 1104.60,208.65 1103.69,209.41 1102.76,210.20 1101.80,211.00 1100.82,211.83 1099.82,212.67 1098.79,213.54 1097.74,214.43 1096.67,215.34 1095.57,216.27 1094.46,217.22 1093.32,218.19 1092.15,219.18 1090.97,220.19 1089.76,221.22 1088.53,222.26 1087.28,223.33 1086.01,224.42 1084.72,225.52 1083.40,226.65 1082.07,227.79 1080.71,228.95 1079.33,230.13 1077.94,231.33 1076.52,232.55 1075.08,233.78 1073.62,235.04 1072.14,236.31 1070.64,237.59 1069.13,238.90 1067.59,240.22 1066.03,241.56 1064.45,242.92 1062.86,244.29 1061.25,245.68 1059.61,247.09 1057.96,248.51 1056.29,249.95 1054.60,251.40 1052.90,252.87 1051.17,254.36 1049.43,255.86 1047.67,257.38 1045.89,258.91 1044.10,260.46 1042.29,262.02 1040.46,263.60 1038.61,265.20 1036.75,266.80 1034.87,268.43 1032.98,270.06 1031.07,271.71 1029.14,273.38 1027.20,275.06 1025.24,276.75 1023.26,278.46 1021.27,280.18 1019.27,281.91 1017.24,283.65 1015.21,285.41 1014.12,286.35" type="driving"/>
    <lane id="-0_2" index="2" disallow="pedestrian tram rail_urban rail rail_electric rail_fast ship" speed="22.22" length="121.54" width="3.75" shape="1103.94,204.31 1103.07,205.03 1102.19,205.78 1101.28,206.54 1100.34,207.33 1099.38,208.13 1098.40,208.96 1097.40,209.81 1096.37,210.68 1095.32,211.57 1094.24,212.48 1093.15,213.41 1092.03,214.36 1090.89,215.33 1089.72,216.32 1088.54,217.33 1087.33,218.36 1086.10,219.41 1084.85,220.48 1083.57,221.57 1082.28,222.67 1080.96,223.80 1079.63,224.94 1078.27,226.11 1076.89,227.29 1075.49,228.49 1074.08,229.70 1072.64,230.94 1071.18,232.19 1069.70,233.46 1068.20,234.75 1066.68,236.06 1065.14,237.38 1063.59,238.72 1062.01,240.07 1060.41,241.45 1058.80,242.84 1057.17,244.24 1055.51,245.67 1053.84,247.11 1052.16,248.56 1050.45,250.03 1048.72,251.52 1046.98,253.02 1045.22,254.54 1043.45,256.07 1041.65,257.62 1039.84,259.19 1038.01,260.76 1036.16,262.36 1034.30,263.97 1032.42,265.59 1030.53,267.22 1028.62,268.88 1026.69,270.54 1024.74,272.22 1022.79,273.91 1020.81,275.62 1018.82,277.34 1016.81,279.07 1014.79,280.82 1012.76,282.58 1011.67,283.52" type="driving"/>
  </edge>
  <edge id="-1" from="0" to="2.1" priority="1" type="driving" shape="1007.41,284.71 1006.13,285.82 1004.84,286.94 1003.54,288.06 1002.24,289.19 1000.93,290.32 999.62,291.45 998.30,292.59 996.98,293.73 995.65,294.88 994.31,296.03 992.97,297.19 991.63,298.35 990.28,299.52 988.92,300.69 987.56,301.87 986.20,303.04 984.83,304.23 983.45,305.42 982.07,306.61 980.69,307.80 979.30,309.00 977.91,310.21 976.51,311.42 975.10,312.63 973.69,313.85 972.28,315.07 970.86,316.29 969.44,317.52 968.01,318.75 966.58,319.99 965.15,321.23 963.71,322.47 962.26,323.72 960.81,324.97 959.36,326.22 957.90,327.48 956.44,328.74 954.97,330.01 953.50,331.28 952.03,332.55 950.55,333.83 949.06,335.11 947.58,336.39 946.09,337.67 944.59,338.96 943.09,340.26 941.59,341.55 940.08,342.85 938.57,344.15 937.06,345.46 935.54,346.77 934.02,348.08 932.49,349.39 930.96,350.71 929.43,352.03 927.89,353.36 926.35,354.68 924.81,356.01 923.26,357.35 921.71,358.68 920.16,360.02 918.60,361.36 917.04,362.70 915.48,364.05 913.91,365.40 912.34,366.75 910.77,368.10 909.19,369.46 907.61,370.82 906.03,372.18 904.44,373.54 902.85,374.91 901.26,376.28 899.67,377.65 898.07,379.02 896.47,380.40 894.87,381.77 893.26,383.15 891.65,384.54 890.04,385.92 888.43,387.31 886.81,388.69 885.19,390.08 883.57,391.48 881.95,392.87 880.32,394.27 878.69,395.67 877.06,397.07 875.42,398.47 873.79,399.87 872.15,401.28 870.51,402.68 868.87,404.09 867.22,405.50 865.57,406.91 863.92,408.33 862.27,409.74 860.62,411.16 858.96,412.58 857.30,414.00 855.65,415.42 853.98,416.84 852.32,418.26 850.65,419.69 848.99,421.11 847.32,422.54 845.65,423.97 843.98,425.40 842.30,426.83 840.63,428.26 838.95,429.70 837.27,431.13 835.59,432.57 833.91,434.00 832.23,435.44 830.54,436.88 828.86,438.32 827.17,439.75 825.48,441.20 823.79,442.64 822.10,444.08 820.41,445.52 818.72,446.96 817.02,448.41 815.33,449.85 813.63,451.30 811.93,452.74 810.23,454.19 808.53,455.64 806.83,457.08 805.13,458.53 803.43,459.98 801.73,461.43 800.03,462.87 798.32,464.32 796.62,465.77 794.91,467.22 793.21,468.67 791.50,470.12 789.79,471.57 788.09,473.02 786.38,474.46 784.67,475.91 782.96,477.36 781.25,478.81 779.54,480.26 777.83,481.71 776.12,483.16 774.41,484.61 772.70,486.05 770.99,487.50 769.28,488.95 767.57,490.40 765.86,491.84 764.15,493.29 762.44,494.74 760.73,496.18 759.02,497.63 757.31,499.07 755.60,500.51 753.89,501.96 752.18,503.40 750.47,504.84 748.76,506.28 747.05,507.72 745.35,509.16 743.64,510.60 741.93,512.04 740.23,513.47 738.52,514.91 736.82,516.34 735.11,517.78 733.41,519.21 731.70,520.64 730.00,522.07 728.30,523.50 726.60,524.93 724.90,526.35 723.20,527.78 721.50,529.20 719.81,530.63 718.11,532.05 716.41,533.47 714.72,534.89 713.03,536.30 711.34,537.72 709.65,539.13 707.96,540.55 706.27,541.96 704.58,543.37 702.90,544.78 701.21,546.18 699.53,547.59 697.85,548.99 696.17,550.39 694.49,551.79 692.81,553.19 691.14,554.58 689.46,555.97 687.79,557.36 686.12,558.75 684.45,560.14 682.79,561.53 681.12,562.91 679.46,564.29 677.80,565.67 676.14,567.05 674.48,568.42 672.83,569.79 671.17,571.16 669.52,572.53 667.87,573.89 666.23,575.26 664.58,576.62 662.94,577.97 661.30,579.33 659.66,580.68 658.03,582.03 656.39,583.38 654.76,584.72 653.13,586.06 651.51,587.40 649.88,588.74 648.26,590.07 646.64,591.40 645.03,592.73 643.41,594.06 641.80,595.38 640.20,596.70 638.59,598.01 636.99,599.33 635.39,600.64 633.79,601.94 632.20,603.25 630.61,604.55 629.02,605.85 627.43,607.14 625.85,608.43 624.27,609.72 622.70,611.00 621.13,612.28 619.56,613.56 617.99,614.84 616.43,616.11 614.87,617.37 613.31,618.64 611.76,619.90 610.21,621.15 608.66,622.41 607.12,623.66 605.58,624.90 604.05,626.14 602.51,627.38 600.99,628.61 599.46,629.84 597.94,631.07 596.42,632.29 594.91,633.51 593.40,634.73 591.89,635.94 590.39,637.14 588.89,638.34 587.40,639.54 585.91,640.74 584.42,641.93 582.94,643.11 581.46,644.29 579.99,645.47 578.52,646.64 577.06,647.81 575.59,648.97 574.14,650.13 572.69,651.29 571.24,652.44 569.79,653.58 568.35,654.73 566.92,655.86 565.49,656.99 564.06,658.12 562.64,659.24 561.22,660.36 559.81,661.48 558.40,662.58 557.00,663.69 555.60,664.79 554.21,665.88 552.82,666.97 551.44,668.05 550.06,669.13 548.69,670.21 547.32,671.27 545.95,672.34 544.60,673.40 543.24,674.45 541.89,675.50 540.55,676.54 539.21,677.58 537.88,678.61 536.55,679.64 535.23,680.66 533.91,681.67 532.60,682.68 531.29,683.69 529.99,684.69 528.70,685.68 527.41,686.67 526.12,687.65 524.84,688.63 523.57,689.60 522.30,690.57 521.04,691.53 519.79,692.48 518.54,693.43 517.29,694.37 516.05,695.31 514.82,696.24 513.59,697.16 512.37,698.08 511.16,698.99 509.95,699.90 508.75,700.80 507.55,701.70 506.36,702.58 505.17,703.47 504.00,704.34 502.82,705.21 501.66,706.07 500.50,706.93 499.35,707.78 498.20,708.62 497.06,709.46 495.93,710.29 494.80,711.12 493.68,711.93 492.56,712.75">