<?xml version='1.0' encoding='UTF-8'?>
<!-- generated on 2022-09-25 13:28:25 by Eclipse SUMO netconvert Version 1.13.0
<configuration xmlns:xsi="http://www.w3.org/2001/XMLSchema-instance" xsi:noNamespaceSchemaLocation="http://sumo.dlr.de/xsd/netconvertConfiguration.xsd">

    <input>
        <opendrive-files value="map_new_new\15\39\39.xodr"/>
    </input>

    <output>
        <output-file value="C:\Users\LinGe\AppData\Local\Temp\tmp_cf3zz85\39.net.xml"/>
    </output>

    <processing>
        <geometry.max-grade.fix value="false"/>
    </processing>

    <tls_building>
        <tls.left-green.time value="0"/>
    </tls_building>

    <junctions>
        <rectangular-lane-cut value="true"/>
    </junctions>

    <report>
        <aggregate-warnings value="5"/>
    </report>

</configuration>
-->
<net xmlns:xsi="http://www.w3.org/2001/XMLSchema-instance" version="1.9" junctionCornerDetail="5" rectangularLaneCut="true" limitTurnSpeed="5.50" xsi:noNamespaceSchemaLocation="http://sumo.dlr.de/xsd/net_file.xsd">
  <location netOffset="201.55,201.27" convBoundary="0.00,0.00,1102.63,1052.95" origBoundary="-201.55,-201.27,901.09,851.68" projParameter="!"/>
  <type id="bidirectional" priority="1" speed="1.39" disallow="pedestrian tram rail_urban rail rail_electric rail_fast ship" width="3.65"/>
  <type id="border" priority="0" speed="1.39" disallow="all" discard="1" width="0.10"/>
  <type id="driving" priority="1" speed="13.89" disallow="pedestrian tram rail_urban rail rail_electric rail_fast ship" width="3.65"/>
  <type id="entry" priority="1" speed="22.22" disallow="pedestrian tram rail_urban rail rail_electric rail_fast ship" width="3.65"/>
  <type id="exit" priority="1" speed="22.22" disallow="pedestrian tram rail_urban rail rail_electric rail_fast ship" width="3.65"/>
  <type id="median" priority="0" speed="1.39" disallow="all" discard="1" width="0.10"/>
  <type id="mwyEntry" priority="1" speed="22.22" allow="private emergency authority army vip passenger hov taxi bus coach delivery truck trailer motorcycle evehicle custom1 custom2" width="3.65"/>
  <type id="mwyExit" priority="1" speed="22.22" allow="private emergency authority army vip passenger hov taxi bus coach delivery truck trailer motorcycle evehicle custom1 custom2" width="3.65"/>
  <type id="none" priority="0" speed="1.39" disallow="all" discard="1" width="1.00"/>
  <type id="offRamp" priority="1" speed="22.22" allow="private emergency authority army vip passenger hov taxi bus coach delivery truck trailer motorcycle evehicle custom1 custom2" width="3.65"/>
  <type id="onRamp" priority="1" speed="22.22" allow="private emergency authority army vip passenger hov taxi bus coach delivery truck trailer motorcycle evehicle custom1 custom2" width="3.65"/>
  <type id="parking" priority="1" speed="1.39" disallow="pedestrian tram rail_urban rail rail_electric rail_fast ship" width="2.50"/>
  <type id="rail" priority="3" speed="33.33" allow="rail_urban rail rail_electric rail_fast" width="3.65"/>
  <type id="restricted" priority="0" speed="13.89" disallow="all" width="3.65"/>
  <type id="roadWorks" priority="0" speed="1.39" allow="authority" width="3.65"/>
  <type id="shoulder" priority="0" speed="1.39" disallow="all" discard="1" width="1.00"/>
  <type id="special1" priority="1" speed="22.22" allow="custom1" discard="1" width="3.65"/>
  <type id="special2" priority="1" speed="22.22" allow="custom2" discard="1" width="3.65"/>
  <type id="special3" priority="1" speed="22.22" allow="custom1 custom2" discard="1" width="3.65"/>
  <type id="stop" priority="1" speed="13.89" disallow="pedestrian tram rail_urban rail rail_electric rail_fast ship" width="3.65"/>
  <type id="tram" priority="2" speed="13.89" allow="tram" width="3.65"/>
  <edge id=":0_0" function="internal">
    <lane id=":0_0_0" index="0" disallow="pedestrian tram rail_urban rail rail_electric rail_fast ship" speed="19.44" length="25.03" width="3.75" shape="971.23,640.66 965.38,646.72,0.01 961.28,652.17,0.02 958.50,656.90,0.03 956.60,660.77,0.04"/>
  </edge>
  <edge id=":0_1" function="internal">
    <lane id=":0_1_0" index="0" disallow="pedestrian tram rail_urban rail rail_electric rail_fast ship" speed="22.22" length="25.40" width="3.75" shape="971.23,640.66 952.35,657.75"/>
    <lane id=":0_1_1" index="1" disallow="pedestrian tram rail_urban rail rail_electric rail_fast ship" speed="22.22" length="25.40" width="3.75" shape="968.69,637.90 949.85,654.94"/>
    <lane id=":0_1_2" index="2" disallow="pedestrian tram rail_urban rail rail_electric rail_fast ship" speed="22.22" length="25.40" width="3.75" shape="966.15,635.14 947.36,652.14"/>
  </edge>
  <edge id=":1_0" function="internal">
    <lane id=":1_0_0" index="0" disallow="pedestrian tram rail_urban rail rail_electric rail_fast ship" speed="19.44" length="41.90" width="3.75" shape="384.21,973.61 394.89,967.82 405.53,961.20 414.36,955.23 419.64,951.34"/>
  </edge>
  <edge id=":1_1" function="internal">
    <lane id=":1_1_0" index="0" disallow="pedestrian tram rail_urban rail rail_electric rail_fast ship" speed="22.22" length="42.09" width="3.75" shape="384.21,973.61 422.06,955.22"/>
    <lane id=":1_1_1" index="1" disallow="pedestrian tram rail_urban rail rail_electric rail_fast ship" speed="22.22" length="42.09" width="3.75" shape="385.85,976.99 423.71,958.59"/>
    <lane id=":1_1_2" index="2" disallow="pedestrian tram rail_urban rail rail_electric rail_fast ship" speed="22.22" length="42.09" width="3.75" shape="387.48,980.36 425.35,961.96"/>
  </edge>
  <edge id=":11.10_0" function="internal">
    <lane id=":11.10_0_0" index="0" disallow="pedestrian tram rail_urban rail rail_electric rail_fast ship" speed="22.22" length="0.30" width="3.75" shape="265.41,250.29,20.00 265.23,250.07,20.00"/>
    <lane id=":11.10_0_1" index="1" disallow="pedestrian tram rail_urban rail rail_electric rail_fast ship" speed="22.22" length="0.30" width="3.75" shape="268.32,247.92,20.00 268.13,247.69,20.00"/>
    <lane id=":11.10_0_2" index="2" disallow="pedestrian tram rail_urban rail rail_electric rail_fast ship" speed="22.22" length="0.30" width="3.75" shape="271.22,245.55,20.00 271.03,245.31,20.00"/>
  </edge>
  <edge id=":13.12_0" function="internal">
    <lane id=":13.12_0_0" index="0" disallow="pedestrian tram rail_urban rail rail_electric rail_fast ship" speed="16.67" length="0.30" width="3.75" shape="522.31,764.68,10.57 522.35,764.39,10.58"/>
  </edge>
  <edge id=":16.15_0" function="internal">
    <lane id=":16.15_0_0" index="0" disallow="pedestrian tram rail_urban rail rail_electric rail_fast ship" speed="16.67" length="0.29" width="3.75" shape="549.73,713.12,14.53 550.02,713.13,14.51"/>
  </edge>
  <edge id=":19.18_0" function="internal">
    <lane id=":19.18_0_0" index="0" disallow="pedestrian tram rail_urban rail rail_electric rail_fast ship" speed="16.67" length="0.29" width="3.75" shape="757.62,892.68,6.41 757.33,892.73,6.42"/>
  </edge>
  <edge id=":2_0" function="internal">
    <lane id=":2_0_0" index="0" disallow="pedestrian tram rail_urban rail rail_electric rail_fast ship" speed="19.44" length="8.04" width="3.75" shape="459.24,541.85,20.00 463.20,548.85,20.00"/>
  </edge>
  <edge id=":2.1_0" function="internal">
    <lane id=":2.1_0_0" index="0" disallow="pedestrian tram rail_urban rail rail_electric rail_fast ship" speed="22.22" length="0.30" width="3.75" shape="786.06,784.39 785.80,784.55"/>
    <lane id=":2.1_0_1" index="1" disallow="pedestrian tram rail_urban rail rail_electric rail_fast ship" speed="22.22" length="0.30" width="3.75" shape="784.02,781.24 783.77,781.40"/>
    <lane id=":2.1_0_2" index="2" disallow="pedestrian tram rail_urban rail rail_electric rail_fast ship" speed="22.22" length="0.30" width="3.75" shape="781.98,778.09 781.73,778.25"/>
  </edge>
  <edge id=":21.20_0" function="internal">
    <lane id=":21.20_0_0" index="0" disallow="pedestrian tram rail_urban rail rail_electric rail_fast ship" speed="11.11" length="0.28" width="3.75" shape="686.86,897.09,6.84 686.75,897.35,6.83"/>
  </edge>
  <edge id=":3_0" function="internal">
    <lane id=":3_0_0" index="0" disallow="pedestrian tram rail_urban rail rail_electric rail_fast ship" speed="19.44" length="8.07" width="3.75" shape="443.88,560.66,19.99 439.86,553.67,20.00"/>
  </edge>
  <edge id=":4_0" function="internal">
    <lane id=":4_0_0" index="0" disallow="pedestrian tram rail_urban rail rail_electric rail_fast ship" speed="19.44" length="96.67" width="3.75" shape="957.30,617.05,0.00 968.77,607.22,0.00 990.96,587.81,0.00 1014.42,567.01,0.00 1029.69,553.00"/>
  </edge>
  <edge id=":4_1" function="internal">
    <lane id=":4_1_0" index="0" disallow="pedestrian tram rail_urban rail rail_electric rail_fast ship" speed="22.22" length="96.52" width="3.75" shape="960.27,619.90 1029.69,553.00"/>
    <lane id=":4_1_1" index="1" disallow="pedestrian tram rail_urban rail rail_electric rail_fast ship" speed="22.22" length="96.52" width="3.75" shape="962.82,622.65 1032.32,555.67"/>
    <lane id=":4_1_2" index="2" disallow="pedestrian tram rail_urban rail rail_electric rail_fast ship" speed="22.22" length="96.52" width="3.75" shape="965.37,625.40 1034.95,558.35"/>
  </edge>
  <edge id=":5_0" function="internal">
    <lane id=":5_0_0" index="0" disallow="pedestrian tram rail_urban rail rail_electric rail_fast ship" speed="16.67" length="35.08" width="3.75" shape="561.20,713.84,13.80 596.00,718.34,13.70"/>
  </edge>
  <edge id=":5_1" function="internal">
    <lane id=":5_1_0" index="0" disallow="pedestrian tram rail_urban rail rail_electric rail_fast ship" speed="13.89" length="35.82" width="3.75" shape="561.20,713.84,13.80 568.07,715.16,13.74 578.67,717.73,13.66 589.21,720.56,13.58 595.90,722.64,13.52"/>
  </edge>
  <edge id=":6_0" function="internal">
    <lane id=":6_0_0" index="0" disallow="pedestrian tram rail_urban rail rail_electric rail_fast ship" speed="16.67" length="30.81" width="3.75" shape="524.14,743.79,12.50 524.07,737.57,12.51 523.69,728.39,12.53 523.15,719.22,12.55 522.59,713.03,12.56"/>
  </edge>
  <edge id=":6_1" function="internal">
    <lane id=":6_1_0" index="0" disallow="pedestrian tram rail_urban rail rail_electric rail_fast ship" speed="16.67" length="30.25" width="3.75" shape="528.26,742.73,12.43 526.94,736.74,12.46 525.22,727.92,12.50 523.59,719.08,12.54 522.59,713.03,12.56"/>
  </edge>
  <edge id=":6.5_0" function="internal">
    <lane id=":6.5_0_0" index="0" disallow="pedestrian tram rail_urban rail rail_electric rail_fast ship" speed="22.22" length="0.30" width="3.75" shape="773.45,765.45 773.69,765.29"/>
    <lane id=":6.5_0_1" index="1" disallow="pedestrian tram rail_urban rail rail_electric rail_fast ship" speed="22.22" length="0.30" width="3.75" shape="775.48,768.60 775.73,768.44"/>
    <lane id=":6.5_0_2" index="2" disallow="pedestrian tram rail_urban rail rail_electric rail_fast ship" speed="22.22" length="0.30" width="3.75" shape="777.52,771.75 777.77,771.58"/>
  </edge>
  <edge id=":7_0" function="internal">
    <lane id=":7_0_0" index="0" disallow="pedestrian tram rail_urban rail rail_electric rail_fast ship" speed="16.67" length="29.33" width="3.75" shape="487.46,954.53,0.11 482.80,954.99,0.09 476.44,956.12,0.07 468.56,958.39,0.04 459.35,962.25"/>
  </edge>
  <edge id=":7_1" function="internal">
    <lane id=":7_1_0" index="0" disallow="pedestrian tram rail_urban rail rail_electric rail_fast ship" speed="22.22" length="28.27" width="3.75" shape="484.71,949.73 459.35,962.25"/>
    <lane id=":7_1_1" index="1" disallow="pedestrian tram rail_urban rail rail_electric rail_fast ship" speed="22.22" length="28.27" width="3.75" shape="483.05,946.37 457.70,958.89"/>
    <lane id=":7_1_2" index="2" disallow="pedestrian tram rail_urban rail rail_electric rail_fast ship" speed="22.22" length="28.27" width="3.75" shape="481.38,943.01 456.04,955.52"/>
  </edge>
  <edge id=":9.8_0" function="internal">
    <lane id=":9.8_0_0" index="0" disallow="pedestrian tram rail_urban rail rail_electric rail_fast ship" speed="22.22" length="0.30" width="3.75" shape="282.83,235.66,20.00 283.02,235.89,20.00"/>
    <lane id=":9.8_0_1" index="1" disallow="pedestrian tram rail_urban rail rail_electric rail_fast ship" speed="22.22" length="0.30" width="3.75" shape="279.93,238.03,20.00 280.12,238.27,20.00"/>
    <lane id=":9.8_0_2" index="2" disallow="pedestrian tram rail_urban rail rail_electric rail_fast ship" speed="22.22" length="0.30" width="3.75" shape="277.03,240.41,20.00 277.21,240.64,20.00"/>
  </edge>
  <edge id="-0" from="0.begin" to="0" priority="1" type="driving" shape="1102.63,502.95 1101.35,504.04 1100.06,505.15 1098.77,506.26 1097.48,507.38 1096.19,508.50 1094.90,509.63 1093.61,510.77 1092.32,511.92 1091.03,513.07 1089.73,514.23 1088.44,515.39 1087.14,516.56 1085.84,517.74 1084.54,518.92 1083.24,520.11 1081.94,521.30 1080.63,522.51 1079.32,523.72 1078.01,524.93 1076.70,526.15 1075.39,527.38 1074.07,528.61 1072.76,529.85 1071.44,531.09 1070.11,532.35 1068.79,533.60 1067.46,534.87 1066.13,536.14 1064.79,537.41 1063.46,538.69 1062.12,539.98 1060.77,541.27 1059.43,542.57 1058.07,543.88 1056.72,545.19 1055.36,546.50 1054.00,547.82 1052.64,549.15 1051.27,550.48 1049.90,551.82 1048.52,553.17 1047.14,554.52 1045.75,555.87 1044.36,557.23 1042.97,558.60 1041.57,559.97 1040.16,561.35 1038.76,562.73 1037.34,564.12 1035.92,565.51 1034.50,566.91 1033.07,568.31 1031.64,569.72 1030.20,571.14 1028.76,572.56 1027.31,573.98 1025.85,575.41 1024.39,576.84 1022.92,578.28 1021.45,579.73 1019.97,581.18 1018.49,582.63 1016.99,584.09 1015.50,585.56 1013.99,587.03 1012.48,588.50 1010.97,589.98 1009.44,591.47 1007.91,592.95 1006.37,594.45 1004.83,595.95 1003.28,597.45 1001.72,598.96 1000.16,600.47 998.58,601.99 997.00,603.51 995.41,605.03 993.82,606.56 992.22,608.10 990.61,609.64 988.99,611.18 987.36,612.73 985.72,614.28 984.08,615.84 982.43,617.40 980.77,618.97 979.10,620.54 977.43,622.11 975.74,623.69 974.05,625.27 972.34,626.86 970.63,628.45 968.91,630.05 967.18,631.64 965.44,633.25 963.69,634.85 961.93,636.47">
    <lane id="-0_0" index="0" disallow="pedestrian tram rail_urban rail rail_electric rail_fast ship" speed="22.22" length="189.79" width="3.75" shape="1108.72,510.08 1107.44,511.17 1106.17,512.26 1104.90,513.35 1103.63,514.45 1102.36,515.56 1101.09,516.68 1099.82,517.80 1098.54,518.93 1097.27,520.06 1095.99,521.21 1094.71,522.36 1093.43,523.51 1092.14,524.68 1090.86,525.85 1089.57,527.02 1088.28,528.21 1086.99,529.40 1085.69,530.59 1084.40,531.80 1083.10,533.01 1081.80,534.22 1080.49,535.45 1079.18,536.67 1077.87,537.91 1076.56,539.15 1075.24,540.40 1073.92,541.66 1072.60,542.92 1071.28,544.18 1069.95,545.46 1068.61,546.74 1067.28,548.02 1065.94,549.32 1064.59,550.62 1063.24,551.92 1061.89,553.23 1060.54,554.55 1059.18,555.87 1057.81,557.20 1056.44,558.53 1055.07,559.87 1053.69,561.22 1052.31,562.57 1050.92,563.93 1049.53,565.29 1048.13,566.66 1046.73,568.04 1045.32,569.42 1043.91,570.81 1042.49,572.20 1041.07,573.60 1039.64,575.00 1038.21,576.41 1036.77,577.82 1035.33,579.24 1033.88,580.67 1032.42,582.10 1030.96,583.53 1029.49,584.98 1028.01,586.42 1026.53,587.87 1025.04,589.33 1023.55,590.79 1022.05,592.26 1020.54,593.73 1019.03,595.21 1017.51,596.70 1015.98,598.18 1014.45,599.68 1012.91,601.17 1011.36,602.68 1009.80,604.18 1008.24,605.70 1006.67,607.22 1005.09,608.74 1003.50,610.26 1001.91,611.80 1000.31,613.33 998.70,614.87 997.08,616.42 995.45,617.97 993.82,619.53 992.18,621.09 990.53,622.65 988.87,624.22 987.20,625.79 985.52,627.37 983.84,628.95 982.14,630.54 980.44,632.13 978.73,633.72 977.01,635.32 975.28,636.93 973.54,638.53 971.79,640.15 971.23,640.66" type="driving"/>
    <lane id="-0_1" index="1" disallow="pedestrian tram rail_urban rail rail_electric rail_fast ship" speed="22.22" length="189.79" width="3.75" shape="1106.28,507.23 1105.00,508.32 1103.73,509.41 1102.45,510.51 1101.17,511.62 1099.90,512.74 1098.62,513.86 1097.34,514.99 1096.05,516.12 1094.77,517.27 1093.49,518.41 1092.20,519.57 1090.91,520.73 1089.62,521.90 1088.33,523.08 1087.04,524.26 1085.74,525.45 1084.45,526.64 1083.15,527.84 1081.84,529.05 1080.54,530.26 1079.23,531.48 1077.92,532.71 1076.61,533.94 1075.30,535.18 1073.98,536.43 1072.66,537.68 1071.34,538.94 1070.01,540.20 1068.68,541.48 1067.35,542.75 1066.01,544.03 1064.67,545.32 1063.33,546.62 1061.98,547.92 1060.63,549.23 1059.28,550.54 1057.92,551.86 1056.56,553.18 1055.19,554.51 1053.82,555.85 1052.45,557.19 1051.07,558.54 1049.69,559.89 1048.30,561.25 1046.90,562.62 1045.51,563.99 1044.10,565.36 1042.70,566.74 1041.28,568.13 1039.87,569.52 1038.44,570.92 1037.02,572.32 1035.58,573.73 1034.14,575.15 1032.70,576.57 1031.25,577.99 1029.79,579.42 1028.33,580.86 1026.86,582.30 1025.39,583.75 1023.91,585.20 1022.42,586.65 1020.93,588.11 1019.43,589.58 1017.92,591.05 1016.41,592.53 1014.89,594.01 1013.37,595.50 1011.83,596.99 1010.29,598.48 1008.75,599.98 1007.19,601.49 1005.63,603.00 1004.06,604.52 1002.49,606.04 1000.90,607.56 999.31,609.09 997.71,610.63 996.10,612.16 994.49,613.71 992.87,615.26 991.24,616.81 989.60,618.37 987.95,619.93 986.29,621.49 984.63,623.06 982.95,624.64 981.27,626.22 979.58,627.80 977.88,629.39 976.17,630.98 974.46,632.57 972.73,634.17 970.99,635.78 969.25,637.39 968.69,637.90" type="driving"/>
    <lane id="-0_2" index="2" disallow="pedestrian tram rail_urban rail rail_electric rail_fast ship" speed="22.22" length="189.79" width="3.75" shape="1103.85,504.37 1102.57,505.47 1101.28,506.57 1100.00,507.68 1098.71,508.79 1097.43,509.91 1096.14,511.04 1094.85,512.18 1093.56,513.32 1092.27,514.47 1090.98,515.62 1089.69,516.78 1088.40,517.95 1087.10,519.12 1085.80,520.30 1084.50,521.49 1083.20,522.69 1081.90,523.88 1080.60,525.09 1079.29,526.30 1077.98,527.52 1076.67,528.75 1075.36,529.98 1074.04,531.21 1072.72,532.46 1071.40,533.71 1070.08,534.96 1068.75,536.22 1067.42,537.49 1066.09,538.77 1064.75,540.05 1063.42,541.33 1062.07,542.62 1060.73,543.92 1059.38,545.22 1058.03,546.53 1056.67,547.85 1055.31,549.17 1053.94,550.49 1052.58,551.83 1051.20,553.16 1049.83,554.51 1048.45,555.86 1047.06,557.21 1045.67,558.57 1044.28,559.94 1042.88,561.31 1041.48,562.69 1040.07,564.07 1038.66,565.46 1037.24,566.85 1035.82,568.25 1034.39,569.65 1032.95,571.06 1031.51,572.47 1030.07,573.89 1028.62,575.32 1027.16,576.75 1025.70,578.18 1024.24,579.62 1022.76,581.07 1021.28,582.52 1019.80,583.97 1018.31,585.43 1016.81,586.90 1015.30,588.37 1013.79,589.84 1012.27,591.32 1010.75,592.81 1009.22,594.30 1007.68,595.79 1006.14,597.29 1004.58,598.80 1003.02,600.31 1001.46,601.82 999.88,603.34 998.30,604.86 996.71,606.39 995.12,607.92 993.51,609.45 991.90,611.00 990.28,612.54 988.65,614.09 987.02,615.64 985.37,617.20 983.72,618.77 982.06,620.33 980.39,621.90 978.71,623.48 977.02,625.06 975.32,626.64 973.62,628.23 971.91,629.83 970.18,631.42 968.45,633.02 966.71,634.63 966.15,635.14" type="driving"/>
  </edge>
  <edge id="-1" from="0" to="2.1" priority="1" type="driving" shape="961.93,636.47 960.70,637.60 959.46,638.73 958.21,639.86 956.96,641.00 955.70,642.14 954.44,643.28 953.18,644.42 951.91,645.56 950.63,646.71 949.35,647.85 948.06,649.00 946.77,650.15 945.48,651.31 944.18,652.46 942.87,653.62 941.56,654.78 940.25,655.94 938.93,657.10 937.60,658.26 936.27,659.43 934.93,660.59 933.59,661.76 932.24,662.93 930.89,664.11 929.53,665.28 928.16,666.45 926.79,667.63 925.42,668.81 924.04,669.99 922.65,671.17 921.26,672.36 919.86,673.54 918.46,674.73 917.05,675.92 915.64,677.11 914.21,678.30 912.79,679.49 911.36,680.69 909.92,681.88 908.47,683.08 907.02,684.28 905.57,685.48 904.10,686.68 902.64,687.89 901.16,689.09 899.68,690.30 898.19,691.51 896.70,692.72 895.20,693.93 893.70,695.14 892.18,696.36 890.67,697.57 889.14,698.79 887.61,700.01 886.07,701.23 884.53,702.45 882.98,703.67 881.42,704.90 879.86,706.12 878.29,707.35 876.71,708.58 875.13,709.81 873.54,711.04 871.94,712.27 870.34,713.50 868.73,714.74 867.11,715.97 865.49,717.21 863.86,718.45 862.22,719.69 860.58,720.93 858.92,722.17 857.27,723.41 855.60,724.66 853.93,725.90 852.25,727.15 850.56,728.40 848.87,729.65 847.17,730.90 845.46,732.15 843.74,733.40 842.02,734.66 840.29,735.91 838.55,737.17 836.80,738.43 835.05,739.68 833.29,740.94 831.52,742.20 829.75,743.46 827.96,744.73 826.17,745.99 824.38,747.25 822.57,748.52 820.76,749.79 818.94,751.05 817.11,752.32 815.27,753.59 813.42,754.86 811.57,756.13 809.71,757.41 807.84,758.68 805.97,759.95 804.08,761.23 802.19,762.50 800.29,763.78 798.38,765.06 796.47,766.34 794.54,767.62 792.61,768.90 790.67,770.18 788.72,771.46 786.76,772.74 784.79,774.03 782.82,775.31 780.84,776.60">
    <lane id="-1_0" index="0" disallow="pedestrian tram rail_urban rail rail_electric rail_fast ship" speed="22.22" length="208.66" width="3.75" shape="952.35,657.75 951.71,658.31 950.40,659.48 949.08,660.64 947.77,661.81 946.44,662.97 945.11,664.14 943.78,665.31 942.44,666.49 941.09,667.66 939.74,668.84 938.38,670.02 937.02,671.20 935.65,672.38 934.28,673.56 932.90,674.75 931.52,675.93 930.13,677.12 928.73,678.31 927.33,679.50 925.92,680.70 924.51,681.89 923.09,683.09 921.66,684.29 920.23,685.49 918.80,686.69 917.36,687.89 915.91,689.10 914.45,690.30 912.99,691.51 911.53,692.72 910.05,693.93 908.57,695.14 907.09,696.36 905.60,697.57 904.10,698.79 902.60,700.01 901.09,701.23 899.57,702.45 898.05,703.67 896.52,704.90 894.99,706.12 893.44,707.35 891.90,708.58 890.34,709.81 888.78,711.04 887.21,712.27 885.64,713.51 884.06,714.74 882.47,715.98 880.87,717.22 879.27,718.46 877.67,719.70 876.05,720.94 874.43,722.18 872.80,723.43 871.16,724.67 869.52,725.92 867.87,727.17 866.22,728.42 864.55,729.67 862.88,730.92 861.21,732.17 859.52,733.43 857.83,734.68 856.13,735.94 854.42,737.20 852.71,738.46 850.99,739.72 849.26,740.98 847.53,742.24 845.78,743.51 844.03,744.77 842.28,746.04 840.51,747.30 838.74,748.57 836.96,749.84 835.17,751.11 833.38,752.38 831.57,753.65 829.76,754.93 827.94,756.20 826.12,757.48 824.28,758.75 822.44,760.03 820.59,761.31 818.74,762.59 816.87,763.87 815.00,765.15 813.12,766.43 811.23,767.71 809.33,769.00 807.43,770.28 805.51,771.57 803.59,772.85 801.66,774.14 799.72,775.43 797.78,776.72 795.82,778.01 793.86,779.30 791.89,780.59 789.91,781.88 787.92,783.17 786.06,784.39" type="driving"/>
    <lane id="-1_1" index="1" disallow="pedestrian tram rail_urban rail rail_electric rail_fast ship" speed="22.22" length="208.66" width="3.75" shape="949.85,654.94 949.22,655.51 947.91,656.67 946.60,657.83 945.28,658.99 943.96,660.16 942.64,661.32 941.31,662.49 939.97,663.66 938.63,664.83 937.28,666.01 935.93,667.18 934.57,668.36 933.20,669.54 931.83,670.72 930.46,671.90 929.08,673.08 927.69,674.27 926.30,675.46 924.90,676.64 923.50,677.83 922.09,679.03 920.67,680.22 919.25,681.41 917.83,682.61 916.39,683.81 914.96,685.01 913.51,686.21 912.06,687.41 910.60,688.62 909.14,689.82 907.67,691.03 906.20,692.24 904.72,693.45 903.23,694.66 901.74,695.88 900.24,697.09 898.73,698.31 897.22,699.53 895.70,700.75 894.18,701.97 892.65,703.19 891.11,704.41 889.57,705.64 888.02,706.86 886.46,708.09 884.90,709.32 883.33,710.55 881.75,711.78 880.17,713.02 878.58,714.25 876.98,715.49 875.38,716.73 873.77,717.96 872.15,719.20 870.53,720.44 868.89,721.69 867.26,722.93 865.61,724.18 863.96,725.42 862.30,726.67 860.64,727.92 858.96,729.17 857.28,730.42 855.60,731.67 853.90,732.92 852.20,734.18 850.49,735.43 848.78,736.69 847.05,737.95 845.32,739.21 843.59,740.47 841.84,741.73 840.09,742.99 838.33,744.26 836.56,745.52 834.78,746.79 833.00,748.05 831.21,749.32 829.41,750.59 827.61,751.86 825.79,753.13 823.97,754.40 822.14,755.67 820.31,756.95 818.46,758.22 816.61,759.50 814.75,760.77 812.88,762.05 811.01,763.33 809.12,764.61 807.23,765.89 805.33,767.17 803.42,768.45 801.51,769.74 799.58,771.02 797.65,772.30 795.71,773.59 793.76,774.88 791.80,776.16 789.84,777.45 787.86,778.74 785.88,780.03 784.02,781.24" type="driving"/>
    <lane id="-1_2" index="2" disallow="pedestrian tram rail_urban rail rail_electric rail_fast ship" speed="22.22" length="208.66" width="3.75" shape="947.36,652.14 946.72,652.71 945.42,653.87 944.12,655.02 942.80,656.18 941.49,657.34 940.16,658.51 938.83,659.67 937.50,660.84 936.16,662.01 934.82,663.18 933.47,664.35 932.11,665.52 930.75,666.70 929.39,667.88 928.02,669.05 926.64,670.23 925.26,671.42 923.87,672.60 922.47,673.79 921.07,674.97 919.67,676.16 918.26,677.35 916.84,678.54 915.42,679.74 913.99,680.93 912.56,682.13 911.12,683.33 909.67,684.53 908.22,685.73 906.76,686.93 905.29,688.13 903.82,689.34 902.35,690.55 900.86,691.76 899.38,692.97 897.88,694.18 896.38,695.39 894.87,696.60 893.36,697.82 891.84,699.04 890.31,700.26 888.78,701.48 887.24,702.70 885.69,703.92 884.14,705.15 882.58,706.37 881.02,707.60 879.44,708.83 877.86,710.06 876.28,711.29 874.69,712.52 873.09,713.75 871.48,714.99 869.87,716.23 868.25,717.46 866.62,718.70 864.99,719.94 863.35,721.18 861.70,722.43 860.05,723.67 858.39,724.92 856.72,726.16 855.05,727.41 853.36,728.66 851.67,729.91 849.98,731.16 848.27,732.41 846.56,733.66 844.85,734.92 843.12,736.17 841.39,737.43 839.65,738.69 837.90,739.95 836.14,741.21 834.38,742.47 832.61,743.73 830.83,744.99 829.05,746.26 827.25,747.52 825.45,748.79 823.64,750.06 821.83,751.32 820.01,752.59 818.17,753.86 816.33,755.14 814.49,756.41 812.63,757.68 810.77,758.95 808.90,760.23 807.02,761.51 805.13,762.78 803.24,764.06 801.33,765.34 799.42,766.62 797.50,767.90 795.58,769.18 793.64,770.46 791.70,771.74 789.75,773.03 787.79,774.31 785.82,775.60 783.84,776.88 781.98,778.09" type="driving"/>
  </edge>
  <edge id="-10" from="3" to="11.10" priority="1" type="driving" shape="450.00,552.53,20.00 449.17,551.08,20.00 448.35,549.64,20.00 447.53,548.19,20.00 446.73,546.75,20.00 445.93,545.31,20.00 445.14,543.88,20.00 444.36,542.45,20.00 443.59,541.02,20.00 442.83,539.60,20.00 442.07,538.17,20.00 441.32,536.75,20.00 440.58,535.34,20.00 439.84,533.92,20.00 439.11,532.51,20.00 438.39,531.10,20.00 437.67,529.69,20.00 436.96,528.28,20.00 436.26,526.88,20.00 435.56,525.48,20.00 434.87,524.07,20.00 434.18,522.67,20.00 433.50,521.28,20.00 432.83,519.88,20.00 432.16,518.48,20.00 431.49,517.09,20.00 430.83,515.69,20.00 430.17,514.30,20.00 429.52,512.90,20.00 428.87,511.51,20.00 428.23,510.12,20.00 427.58,508.73,20.00 426.95,507.34,20.00 426.31,505.95,20.00 425.68,504.55,20.00 425.05,503.16,20.00 424.43,501.77,20.00 423.80,500.38,20.00 423.18,498.99,20.00 422.57,497.59,20.00 421.95,496.20,20.00 421.33,494.80,20.00 420.72,493.41,20.00 420.11,492.01,20.00 419.50,490.62,20.00 418.89,489.22,20.00 418.28,487.82,20.00 417.68,486.41,20.00 417.07,485.01,20.00 416.46,483.61,20.00 415.86,482.20,20.00 415.25,480.79,20.00 414.65,479.38,20.00 414.04,477.97,20.00 413.43,476.55,20.00 412.83,475.13,20.00 412.22,473.71,20.00 411.61,472.29,20.00 411.00,470.87,20.00 410.38,469.44,20.00 409.77,468.01,20.00 409.16,466.57,20.00 408.54,465.13,20.00 407.92,463.69,20.00 407.30,462.25,20.00 406.67,460.80,20.00 406.04,459.35,20.00 405.41,457.90,20.00 404.78,456.44,20.00 404.14,454.98,20.00 403.50,453.51,20.00 402.86,452.04,20.00 402.21,450.56,20.00 401.56,449.08,20.00 400.91,447.60,20.00 400.25,446.11,20.00 399.58,444.62,20.00 398.91,443.12,20.00 398.24,441.62,20.00 397.56,440.11,20.00 396.88,438.59,20.00 396.19,437.07,20.00 395.49,435.55,20.00 394.79,434.02,20.00 394.08,432.48,20.00 393.37,430.94,20.00 392.65,429.40,20.00 391.92,427.84,20.00 391.19,426.28,20.00 390.45,424.72,20.00 389.70,423.15,20.00 388.95,421.57,20.00 388.18,419.98,20.00 387.42,418.39,20.00 386.64,416.79,20.00 385.85,415.19,20.00 385.06,413.58,20.00 384.26,411.96,20.00 383.45,410.33,20.00 382.63,408.70,20.00 381.80,407.06,20.00 380.96,405.41,20.00 380.11,403.75,20.00 379.26,402.09,20.00 378.39,400.42,20.00 377.52,398.74,20.00 376.63,397.05,20.00 375.74,395.35,20.00 374.83,393.65,20.00 373.91,391.93,20.00 372.99,390.21,20.00 372.05,388.48,20.00 371.10,386.74,20.00 370.14,384.99,20.00 369.16,383.24,20.00 368.18,381.47,20.00 367.19,379.69,20.00 366.18,377.91,20.00 365.16,376.11,20.00 364.12,374.31,20.00 363.08,372.50,20.00 362.02,370.67,20.00 360.95,368.84,20.00 359.87,367.00,20.00 358.77,365.14,20.00 357.66,363.28,20.00 356.53,361.40,20.00 355.40,359.52,20.00 354.24,357.62,20.00 353.08,355.72,20.00 351.90,353.80,20.00 350.70,351.87,20.00 349.49,349.93,20.00 348.27,347.98,20.00 347.03,346.02,20.00 345.77,344.05,20.00 344.50,342.06,20.00 343.21,340.07,20.00 341.91,338.06,20.00 340.59,336.04,20.00 339.26,334.01,20.00 337.90,331.97,20.00 336.54,329.91,20.00 335.15,327.84,20.00 333.75,325.76,20.00 332.33,323.67,20.00 330.89,321.56,20.00 329.44,319.44,20.00 327.97,317.31,20.00 326.48,315.17,20.00 324.97,313.01,20.00 323.45,310.84,20.00 321.90,308.66,20.00 320.34,306.46,20.00 318.76,304.25,20.00 317.16,302.02,20.00 315.54,299.78,20.00 313.90,297.53,20.00 312.24,295.27,20.00 310.56,292.99,20.00 308.86,290.69,20.00 307.15,288.38,20.00 305.41,286.06,20.00 303.65,283.72,20.00 301.87,281.37,20.00 300.07,279.00,20.00 298.25,276.62,20.00 296.40,274.22,20.00 294.54,271.81,20.00 292.65,269.38,20.00 290.75,266.94,20.00 288.82,264.48,20.00 286.87,262.01,20.00 284.89,259.52,20.00 282.90,257.01,20.00 280.88,254.49,20.00 278.84,251.95,20.00 276.77,249.40,20.00 274.69,246.83,20.00 272.58,244.24,20.00">