<?xml version='1.0' encoding='UTF-8'?>
<!-- generated on 2022-09-05 20:52:51 by Eclipse SUMO netconvert Version 1.13.0
<configuration xmlns:xsi="http://www.w3.org/2001/XMLSchema-instance" xsi:noNamespaceSchemaLocation="http://sumo.dlr.de/xsd/netconvertConfiguration.xsd">

    <input>
        <opendrive-files value="map\classification\10\64745143\64745143.xodr"/>
    </input>

    <output>
        <output-file value="C:\Users\LinGe\AppData\Local\Temp\tmpdf1avx43\64745143.net.xml"/>
    </output>

    <processing>
        <geometry.max-grade.fix value="false"/>
    </processing>

    <tls_building>
        <tls.left-green.time value="0"/>
    </tls_building>

    <junctions>
        <rectangular-lane-cut value="true"/>
    </junctions>

    <report>
        <aggregate-warnings value="5"/>
    </report>

</configuration>
-->
<net xmlns:xsi="http://www.w3.org/2001/XMLSchema-instance" version="1.9" junctionCornerDetail="5" rectangularLaneCut="true" limitTurnSpeed="5.50" xsi:noNamespaceSchemaLocation="http://sumo.dlr.de/xsd/net_file.xsd">
  <location netOffset="1.56,101.26" convBoundary="0.00,0.00,1102.73,1302.51" origBoundary="-1.56,-101.26,1101.18,1201.26" projParameter="!"/>
  <type id="bidirectional" priority="1" speed="1.39" disallow="pedestrian tram rail_urban rail rail_electric rail_fast ship" width="3.65"/>
  <type id="border" priority="0" speed="1.39" disallow="all" discard="1" width="0.10"/>
  <type id="driving" priority="1" speed="13.89" disallow="pedestrian tram rail_urban rail rail_electric rail_fast ship" width="3.65"/>
  <type id="entry" priority="1" speed="22.22" disallow="pedestrian tram rail_urban rail rail_electric rail_fast ship" width="3.65"/>
  <type id="exit" priority="1" speed="22.22" disallow="pedestrian tram rail_urban rail rail_electric rail_fast ship" width="3.65"/>
  <type id="median" priority="0" speed="1.39" disallow="all" discard="1" width="0.10"/>
  <type id="mwyEntry" priority="1" speed="22.22" allow="private emergency authority army vip passenger hov taxi bus coach delivery truck trailer motorcycle evehicle custom1 custom2" width="3.65"/>
  <type id="mwyExit" priority="1" speed="22.22" allow="private emergency authority army vip passenger hov taxi bus coach delivery truck trailer motorcycle evehicle custom1 custom2" width="3.65"/>
  <type id="none" priority="0" speed="1.39" disallow="all" discard="1" width="1.00"/>
  <type id="offRamp" priority="1" speed="22.22" allow="private emergency authority army vip passenger hov taxi bus coach delivery truck trailer motorcycle evehicle custom1 custom2" width="3.65"/>
  <type id="onRamp" priority="1" speed="22.22" allow="private emergency authority army vip passenger hov taxi bus coach delivery truck trailer motorcycle evehicle custom1 custom2" width="3.65"/>
  <type id="parking" priority="1" speed="1.39" disallow="pedestrian tram rail_urban rail rail_electric rail_fast ship" width="2.50"/>
  <type id="rail" priority="3" speed="33.33" allow="rail_urban rail rail_electric rail_fast" width="3.65"/>
  <type id="restricted" priority="0" speed="13.89" disallow="all" width="3.65"/>
  <type id="roadWorks" priority="0" speed="1.39" allow="authority" width="3.65"/>
  <type id="shoulder" priority="0" speed="1.39" disallow="all" discard="1" width="1.00"/>
  <type id="special1" priority="1" speed="22.22" allow="custom1" discard="1" width="3.65"/>
  <type id="special2" priority="1" speed="22.22" allow="custom2" discard="1" width="3.65"/>
  <type id="special3" priority="1" speed="22.22" allow="custom1 custom2" discard="1" width="3.65"/>
  <type id="stop" priority="1" speed="13.89" disallow="pedestrian tram rail_urban rail rail_electric rail_fast ship" width="3.65"/>
  <type id="tram" priority="2" speed="13.89" allow="tram" width="3.65"/>
  <edge id=":0_0" function="internal">
    <lane id=":0_0_0" index="0" disallow="pedestrian tram rail_urban rail rail_electric rail_fast ship" speed="18.06" length="79.71" width="3.75" shape="993.41,310.45 980.19,322.77 961.85,340.53 945.00,357.13 936.23,365.98"/>
  </edge>
  <edge id=":0_1" function="internal">
    <lane id=":0_1_0" index="0" disallow="pedestrian tram rail_urban rail rail_electric rail_fast ship" speed="22.22" length="79.84" width="3.75" shape="993.41,310.45 933.29,362.99"/>
    <lane id=":0_1_1" index="1" disallow="pedestrian tram rail_urban rail rail_electric rail_fast ship" speed="22.22" length="79.84" width="3.75" shape="990.94,307.63 930.82,360.17"/>
    <lane id=":0_1_2" index="2" disallow="pedestrian tram rail_urban rail rail_electric rail_fast ship" speed="22.22" length="79.84" width="3.75" shape="988.47,304.80 928.36,357.34"/>
  </edge>
  <edge id=":1_0" function="internal">
    <lane id=":1_0_0" index="0" disallow="pedestrian tram rail_urban rail rail_electric rail_fast ship" speed="18.06" length="90.20" width="3.75" shape="91.35,938.12 108.35,928.13 133.23,912.96 156.41,898.62 168.33,891.09"/>
  </edge>
  <edge id=":1_1" function="internal">
    <lane id=":1_1_0" index="0" disallow="pedestrian tram rail_urban rail rail_electric rail_fast ship" speed="22.22" length="90.28" width="3.75" shape="91.35,938.12 170.45,894.63"/>
    <lane id=":1_1_1" index="1" disallow="pedestrian tram rail_urban rail rail_electric rail_fast ship" speed="22.22" length="90.28" width="3.75" shape="93.16,941.40 172.27,897.91"/>
    <lane id=":1_1_2" index="2" disallow="pedestrian tram rail_urban rail rail_electric rail_fast ship" speed="22.22" length="90.28" width="3.75" shape="94.96,944.69 174.08,901.19"/>
  </edge>
  <edge id=":10_0" function="internal">
    <lane id=":10_0_0" index="0" disallow="pedestrian tram rail_urban rail rail_electric rail_fast ship" speed="18.06" length="55.63" width="3.75" shape="950.51,1127.24,20.00 954.59,1134.92,20.00 962.07,1148.36,20.00 970.72,1163.28,20.00 978.35,1175.39,20.00"/>
  </edge>
  <edge id=":10_1" function="internal">
    <lane id=":10_1_0" index="0" disallow="pedestrian tram rail_urban rail rail_electric rail_fast ship" speed="22.22" length="55.22" width="3.75" shape="947.03,1129.90,20.00 978.35,1175.39,20.00"/>
    <lane id=":10_1_1" index="1" disallow="pedestrian tram rail_urban rail rail_electric rail_fast ship" speed="22.22" length="55.22" width="3.75" shape="943.94,1132.03,20.00 975.26,1177.51,20.00"/>
    <lane id=":10_1_2" index="2" disallow="pedestrian tram rail_urban rail rail_electric rail_fast ship" speed="22.22" length="55.22" width="3.75" shape="940.85,1134.16,20.00 972.17,1179.64,20.00"/>
  </edge>
  <edge id=":11_0" function="internal">
    <lane id=":11_0_0" index="0" disallow="pedestrian tram rail_urban rail rail_electric rail_fast ship" speed="13.89" length="24.45" width="3.75" shape="822.29,626.70,7.57 821.07,651.13,7.61"/>
  </edge>
  <edge id=":11_1" function="internal">
    <lane id=":11_1_0" index="0" disallow="pedestrian tram rail_urban rail rail_electric rail_fast ship" speed="11.11" length="25.36" width="3.75" shape="822.29,626.70,7.57 821.51,632.01,7.58 820.00,639.18,7.60 818.18,646.26,7.62 816.49,651.35,7.63"/>
  </edge>
  <edge id=":12_0" function="internal">
    <lane id=":12_0_0" index="0" disallow="pedestrian tram rail_urban rail rail_electric rail_fast ship" speed="18.06" length="2.99" width="3.75" shape="447.65,812.77,4.05 444.66,812.82,4.00"/>
  </edge>
  <edge id=":12_1" function="internal">
    <lane id=":12_1_0" index="0" disallow="pedestrian tram rail_urban rail rail_electric rail_fast ship" speed="19.44" length="3.01" width="3.75" shape="447.67,812.77,4.09 444.66,812.82,4.00"/>
  </edge>
  <edge id=":13_0" function="internal">
    <lane id=":13_0_0" index="0" disallow="pedestrian tram rail_urban rail rail_electric rail_fast ship" speed="13.89" length="51.06" width="3.75" shape="365.68,570.49,13.45 364.41,561.19,13.45 362.01,545.23,13.47 359.51,529.27,13.49 357.95,520.02,13.49"/>
  </edge>
  <edge id=":13_1" function="internal">
    <lane id=":13_1_0" index="0" disallow="pedestrian tram rail_urban rail rail_electric rail_fast ship" speed="11.11" length="50.73" width="3.75" shape="369.56,569.40,13.35 357.95,520.02,13.49"/>
  </edge>
  <edge id=":14_0" function="internal">
    <lane id=":14_0_0" index="0" disallow="pedestrian tram rail_urban rail rail_electric rail_fast ship" speed="18.06" length="2.98" width="3.75" shape="725.04,333.58,5.97 728.02,333.63,5.94"/>
  </edge>
  <edge id=":14_1" function="internal">
    <lane id=":14_1_0" index="0" disallow="pedestrian tram rail_urban rail rail_electric rail_fast ship" speed="22.22" length="3.01" width="3.75" shape="725.01,333.59,6.01 728.02,333.63,5.94"/>
  </edge>
  <edge id=":14.13_0" function="internal">
    <lane id=":14.13_0_0" index="0" disallow="pedestrian tram rail_urban rail rail_electric rail_fast ship" speed="22.22" length="0.30" width="3.75" shape="529.98,584.75,20.00 529.79,584.52,20.00"/>
    <lane id=":14.13_0_1" index="1" disallow="pedestrian tram rail_urban rail rail_electric rail_fast ship" speed="22.22" length="0.30" width="3.75" shape="532.89,582.39,20.00 532.71,582.16,20.00"/>
    <lane id=":14.13_0_2" index="2" disallow="pedestrian tram rail_urban rail rail_electric rail_fast ship" speed="22.22" length="0.30" width="3.75" shape="535.81,580.04,20.00 535.62,579.80,20.00"/>
  </edge>
  <edge id=":15_0" function="internal">
    <lane id=":15_0_0" index="0" disallow="pedestrian tram rail_urban rail rail_electric rail_fast ship" speed="13.89" length="54.45" width="3.75" shape="856.14,853.74,14.25 870.46,906.27,14.29"/>
  </edge>
  <edge id=":15_1" function="internal">
    <lane id=":15_1_0" index="0" disallow="pedestrian tram rail_urban rail rail_electric rail_fast ship" speed="12.50" length="54.26" width="3.75" shape="852.42,855.11,14.12 855.88,864.37,14.16 861.67,880.61,14.21 867.34,896.90,14.26 870.46,906.27,14.29"/>
  </edge>
  <edge id=":18.17_0" function="internal">
    <lane id=":18.17_0_0" index="0" disallow="pedestrian tram rail_urban rail rail_electric rail_fast ship" speed="19.44" length="0.30" width="3.75" shape="556.29,840.38,8.15 556.01,840.28,8.14"/>
  </edge>
  <edge id=":2_0" function="internal">
    <lane id=":2_0_0" index="0" disallow="pedestrian tram rail_urban rail rail_electric rail_fast ship" speed="22.22" length="99.17" width="3.75" shape="115.60,103.60,20.00 130.67,118.40,20.00 153.95,140.67,20.00 175.98,161.54,20.00 187.32,172.10,20.00"/>
  </edge>
  <edge id=":2_1" function="internal">
    <lane id=":2_1_0" index="0" disallow="pedestrian tram rail_urban rail rail_electric rail_fast ship" speed="22.22" length="99.29" width="3.75" shape="115.60,103.60,20.00 184.51,175.10,20.00"/>
    <lane id=":2_1_1" index="1" disallow="pedestrian tram rail_urban rail rail_electric rail_fast ship" speed="22.22" length="99.29" width="3.75" shape="112.91,106.21,20.00 181.81,177.70,20.00"/>
    <lane id=":2_1_2" index="2" disallow="pedestrian tram rail_urban rail rail_electric rail_fast ship" speed="22.22" length="99.29" width="3.75" shape="110.21,108.81,20.00 179.10,180.30,20.00"/>
  </edge>
  <edge id=":2.1_0" function="internal">
    <lane id=":2.1_0_0" index="0" disallow="pedestrian tram rail_urban rail rail_electric rail_fast ship" speed="22.22" length="0.30" width="3.75" shape="516.59,709.65 516.34,709.83"/>
    <lane id=":2.1_0_1" index="1" disallow="pedestrian tram rail_urban rail rail_electric rail_fast ship" speed="22.22" length="0.30" width="3.75" shape="514.38,706.62 514.14,706.79"/>
    <lane id=":2.1_0_2" index="2" disallow="pedestrian tram rail_urban rail rail_electric rail_fast ship" speed="22.22" length="0.30" width="3.75" shape="512.18,703.58 511.94,703.76"/>
  </edge>
  <edge id=":22.21_0" function="internal">
    <lane id=":22.21_0_0" index="0" disallow="pedestrian tram rail_urban rail rail_electric rail_fast ship" speed="13.89" length="0.30" width="3.75" shape="365.76,641.90,9.28 365.80,641.60,9.29"/>
  </edge>
  <edge id=":26.25_0" function="internal">
    <lane id=":26.25_0_0" index="0" disallow="pedestrian tram rail_urban rail rail_electric rail_fast ship" speed="22.22" length="0.30" width="3.75" shape="650.65,327.26,7.70 650.94,327.31,7.69"/>
  </edge>
  <edge id=":3_0" function="internal">
    <lane id=":3_0_0" index="0" disallow="pedestrian tram rail_urban rail rail_electric rail_fast ship" speed="20.83" length="142.91" width="3.75" shape="943.31,1164.59,20.00 858.89,1049.28,20.00"/>
  </edge>
  <edge id=":3_1" function="internal">
    <lane id=":3_1_0" index="0" disallow="pedestrian tram rail_urban rail rail_electric rail_fast ship" speed="22.22" length="142.97" width="3.75" shape="943.31,1164.59,20.00 862.12,1046.92,20.00"/>
    <lane id=":3_1_1" index="1" disallow="pedestrian tram rail_urban rail rail_electric rail_fast ship" speed="22.22" length="142.97" width="3.75" shape="946.40,1162.46,20.00 865.20,1044.78,20.00"/>
    <lane id=":3_1_2" index="2" disallow="pedestrian tram rail_urban rail rail_electric rail_fast ship" speed="22.22" length="142.97" width="3.75" shape="949.49,1160.34,20.00 868.29,1042.65,20.00"/>
  </edge>
  <edge id=":30.29_0" function="internal">
    <lane id=":30.29_0_0" index="0" disallow="pedestrian tram rail_urban rail rail_electric rail_fast ship" speed="13.89" length="0.30" width="3.75" shape="820.80,662.09,8.57 820.80,662.39,8.58"/>
  </edge>
  <edge id=":33.32_0" function="internal">
    <lane id=":33.32_0_0" index="0" disallow="pedestrian tram rail_urban rail rail_electric rail_fast ship" speed="16.67" length="0.30" width="3.75" shape="711.90,881.25,7.51 711.97,881.54,7.51"/>
  </edge>
  <edge id=":35.34_0" function="internal">
    <lane id=":35.34_0_0" index="0" disallow="pedestrian tram rail_urban rail rail_electric rail_fast ship" speed="8.33" length="0.29" width="3.75" shape="539.81,772.55,10.57 539.53,772.48,10.57"/>
  </edge>
  <edge id=":37.36_0" function="internal">
    <lane id=":37.36_0_0" index="0" disallow="pedestrian tram rail_urban rail rail_electric rail_fast ship" speed="13.89" length="0.30" width="3.75" shape="492.24,171.96,8.09 492.26,171.67,8.09"/>
  </edge>
  <edge id=":39.38_0" function="internal">
    <lane id=":39.38_0_0" index="0" disallow="pedestrian tram rail_urban rail rail_electric rail_fast ship" speed="11.11" length="0.30" width="3.75" shape="617.19,626.45,9.35 617.48,626.52,9.36"/>
  </edge>
  <edge id=":4_0" function="internal">
    <lane id=":4_0_0" index="0" disallow="pedestrian tram rail_urban rail rail_electric rail_fast ship" speed="20.83" length="91.49" width="3.75" shape="300.78,851.82,0.00 287.96,858.15,0.00 263.24,870.64,0.00 236.91,884.12,0.00 219.30,893.43"/>
  </edge>
  <edge id=":4_1" function="internal">
    <lane id=":4_1_0" index="0" disallow="pedestrian tram rail_urban rail rail_electric rail_fast ship" speed="22.22" length="91.19" width="3.75" shape="298.58,848.27 219.30,893.43"/>
    <lane id=":4_1_1" index="1" disallow="pedestrian tram rail_urban rail rail_electric rail_fast ship" speed="22.22" length="91.19" width="3.75" shape="296.70,845.02 217.47,890.16"/>
    <lane id=":4_1_2" index="2" disallow="pedestrian tram rail_urban rail rail_electric rail_fast ship" speed="22.22" length="91.19" width="3.75" shape="294.82,841.78 215.63,886.89"/>
  </edge>
  <edge id=":5_0" function="internal">
    <lane id=":5_0_0" index="0" disallow="pedestrian tram rail_urban rail rail_electric rail_fast ship" speed="19.44" length="19.82" width="3.75" shape="684.51,887.56,13.03 666.68,878.88,12.98"/>
  </edge>
  <edge id=":5_1" function="internal">
    <lane id=":5_1_0" index="0" disallow="pedestrian tram rail_urban rail rail_electric rail_fast ship" speed="16.67" length="20.83" width="3.75" shape="684.51,887.56,13.03 680.59,885.05,13.01 676.03,881.55,13.00 671.66,877.80,12.98 668.30,874.56,12.97"/>
  </edge>
  <edge id=":6_0" function="internal">
    <lane id=":6_0_0" index="0" disallow="pedestrian tram rail_urban rail rail_electric rail_fast ship" speed="18.06" length="84.18" width="3.75" shape="242.62,274.75,20.00 234.19,264.65,20.00 217.84,245.49,20.00 200.11,225.04,20.00 187.55,211.09,20.00"/>
  </edge>
  <edge id=":6_1" function="internal">
    <lane id=":6_1_0" index="0" disallow="pedestrian tram rail_urban rail rail_electric rail_fast ship" speed="22.22" length="83.92" width="3.75" shape="245.53,271.73,20.00 187.55,211.09,20.00"/>
    <lane id=":6_1_1" index="1" disallow="pedestrian tram rail_urban rail rail_electric rail_fast ship" speed="22.22" length="83.92" width="3.75" shape="248.25,269.14,20.00 190.26,208.49,20.00"/>
    <lane id=":6_1_2" index="2" disallow="pedestrian tram rail_urban rail rail_electric rail_fast ship" speed="22.22" length="83.92" width="3.75" shape="250.97,266.56,20.00 192.96,205.89,20.00"/>
  </edge>
  <edge id=":6.5_0" function="internal">
    <lane id=":6.5_0_0" index="0" disallow="pedestrian tram rail_urban rail rail_electric rail_fast ship" speed="22.22" length="0.30" width="3.75" shape="502.97,691.42 503.21,691.25"/>
    <lane id=":6.5_0_1" index="1" disallow="pedestrian tram rail_urban rail rail_electric rail_fast ship" speed="22.22" length="0.30" width="3.75" shape="505.17,694.46 505.41,694.28"/>
    <lane id=":6.5_0_2" index="2" disallow="pedestrian tram rail_urban rail rail_electric rail_fast ship" speed="22.22" length="0.30" width="3.75" shape="507.37,697.49 507.62,697.31"/>
  </edge>
  <edge id=":7_0" function="internal">
    <lane id=":7_0_0" index="0" disallow="pedestrian tram rail_urban rail rail_electric rail_fast ship" speed="13.89" length="2.99" width="3.75" shape="302.30,768.91,4.74 304.15,766.56,4.83"/>
  </edge>
  <edge id=":7_1" function="internal">
    <lane id=":7_1_0" index="0" disallow="pedestrian tram rail_urban rail rail_electric rail_fast ship" speed="12.50" length="3.00" width="3.75" shape="302.30,768.91,4.74 304.16,766.56,4.79"/>
  </edge>
  <edge id=":8_0" function="internal">
    <lane id=":8_0_0" index="0" disallow="pedestrian tram rail_urban rail rail_electric rail_fast ship" speed="22.22" length="40.74" width="3.75" shape="977.89,287.47,0.16 983.42,284.29,0.13 992.10,278.80,0.09 1002.06,271.89,0.05 1011.44,264.45"/>
  </edge>
  <edge id=":8_1" function="internal">
    <lane id=":8_1_0" index="0" disallow="pedestrian tram rail_urban rail rail_electric rail_fast ship" speed="22.22" length="40.10" width="3.75" shape="981.27,290.86 1011.44,264.45"/>
    <lane id=":8_1_1" index="1" disallow="pedestrian tram rail_urban rail rail_electric rail_fast ship" speed="22.22" length="40.10" width="3.75" shape="983.74,293.68 1013.91,267.27"/>
    <lane id=":8_1_2" index="2" disallow="pedestrian tram rail_urban rail rail_electric rail_fast ship" speed="22.22" length="40.10" width="3.75" shape="986.21,296.51 1016.38,270.10"/>
  </edge>
  <edge id=":9_0" function="internal">
    <lane id=":9_0_0" index="0" disallow="pedestrian tram rail_urban rail rail_electric rail_fast ship" speed="22.22" length="31.53" width="3.75" shape="314.84,257.72,15.56 343.79,270.23,15.52"/>
  </edge>
  <edge id=":9_1" function="internal">
    <lane id=":9_1_0" index="0" disallow="pedestrian tram rail_urban rail rail_electric rail_fast ship" speed="19.44" length="32.09" width="3.75" shape="314.84,257.72,15.56 320.48,260.80,15.55 328.77,265.68,15.53 336.99,270.70,15.51 342.38,274.19,15.50"/>
  </edge>
  <edge id=":9.10_0" function="internal">
    <lane id=":9.10_0_0" index="0" disallow="pedestrian tram rail_urban rail rail_electric rail_fast ship" speed="22.22" length="0.30" width="3.75" shape="547.48,570.22,20.00 547.68,570.45,20.00"/>
    <lane id=":9.10_0_1" index="1" disallow="pedestrian tram rail_urban rail rail_electric rail_fast ship" speed="22.22" length="0.30" width="3.75" shape="544.57,572.58,20.00 544.76,572.81,20.00"/>
    <lane id=":9.10_0_2" index="2" disallow="pedestrian tram rail_urban rail rail_electric rail_fast ship" speed="22.22" length="0.30" width="3.75" shape="541.65,574.93,20.00 541.84,575.16,20.00"/>
  </edge>
  <edge id="-0" from="0.begin" to="0" priority="1" type="driving" shape="1102.73,202.87 1101.91,203.57 1101.07,204.28 1100.21,205.01 1099.33,205.76 1098.43,206.52 1097.50,207.31 1096.56,208.11 1095.60,208.93 1094.62,209.77 1093.62,210.63 1092.60,211.51 1091.56,212.40 1090.50,213.31 1089.42,214.24 1088.32,215.18 1087.21,216.14 1086.07,217.12 1084.92,218.12 1083.74,219.13 1082.55,220.16 1081.35,221.21 1080.12,222.27 1078.87,223.35 1077.61,224.44 1076.33,225.55 1075.03,226.68 1073.72,227.82 1072.38,228.98 1071.03,230.15 1069.66,231.34 1068.28,232.54 1066.88,233.76 1065.46,235.00 1064.02,236.25 1062.57,237.51 1061.10,238.79 1059.62,240.09 1058.12,241.39 1056.60,242.72 1055.07,244.05 1053.52,245.40 1051.96,246.77 1050.38,248.15 1048.79,249.54 1047.18,250.95 1045.55,252.37 1043.91,253.80 1042.26,255.25 1040.59,256.71 1038.90,258.18 1037.20,259.66 1035.49,261.16 1033.76,262.67 1032.02,264.20 1030.26,265.73 1028.49,267.28 1026.71,268.84 1024.91,270.42 1023.10,272.00 1021.28,273.60 1019.44,275.21 1017.59,276.83 1015.72,278.46 1013.85,280.10 1011.96,281.75 1010.05,283.42 1008.14,285.10 1006.21,286.78 1004.27,288.48 1002.32,290.19 1000.36,291.91 998.38,293.64 996.39,295.38 994.39,297.13 992.38,298.89 990.36,300.66 988.33,302.44 986.28,304.23 984.22,306.03">
    <lane id="-0_0" index="0" disallow="pedestrian tram rail_urban rail rail_electric rail_fast ship" speed="22.22" length="153.01" width="3.75" shape="1108.78,210.04 1107.96,210.73 1107.13,211.43 1106.28,212.16 1105.40,212.90 1104.50,213.66 1103.59,214.44 1102.65,215.24 1101.69,216.06 1100.72,216.90 1099.72,217.75 1098.70,218.62 1097.67,219.51 1096.61,220.42 1095.53,221.34 1094.44,222.29 1093.33,223.24 1092.19,224.22 1091.04,225.21 1089.87,226.22 1088.69,227.25 1087.48,228.30 1086.25,229.36 1085.01,230.43 1083.75,231.52 1082.47,232.63 1081.18,233.76 1079.86,234.90 1078.53,236.06 1077.18,237.23 1075.82,238.42 1074.43,239.62 1073.03,240.84 1071.61,242.07 1070.18,243.32 1068.73,244.58 1067.26,245.86 1065.78,247.15 1064.28,248.46 1062.77,249.78 1061.23,251.12 1059.69,252.47 1058.12,253.83 1056.55,255.21 1054.95,256.60 1053.34,258.01 1051.72,259.43 1050.08,260.86 1048.42,262.31 1046.76,263.76 1045.07,265.24 1043.37,266.72 1041.66,268.22 1039.93,269.73 1038.19,271.25 1036.43,272.79 1034.67,274.34 1032.88,275.90 1031.08,277.47 1029.27,279.06 1027.45,280.65 1025.61,282.26 1023.76,283.88 1021.90,285.51 1020.02,287.15 1018.13,288.81 1016.23,290.47 1014.31,292.15 1012.39,293.84 1010.45,295.54 1008.49,297.24 1006.53,298.96 1004.55,300.69 1002.57,302.43 1000.57,304.18 998.56,305.94 996.53,307.71 994.50,309.49 993.41,310.45" type="driving"/>
    <lane id="-0_1" index="1" disallow="pedestrian tram rail_urban rail rail_electric rail_fast ship" speed="22.22" length="153.01" width="3.75" shape="1106.36,207.17 1105.54,207.86 1104.71,208.57 1103.85,209.30 1102.97,210.04 1102.07,210.81 1101.15,211.59 1100.21,212.39 1099.26,213.21 1098.28,214.05 1097.28,214.90 1096.26,215.78 1095.22,216.67 1094.16,217.58 1093.09,218.50 1091.99,219.44 1090.88,220.40 1089.75,221.38 1088.59,222.38 1087.42,223.39 1086.23,224.42 1085.03,225.46 1083.80,226.52 1082.56,227.60 1081.29,228.69 1080.02,229.80 1078.72,230.93 1077.40,232.07 1076.07,233.22 1074.72,234.40 1073.35,235.59 1071.97,236.79 1070.57,238.01 1069.15,239.24 1067.72,240.49 1066.27,241.75 1064.80,243.03 1063.32,244.33 1061.82,245.63 1060.30,246.96 1058.77,248.29 1057.22,249.64 1055.66,251.01 1054.08,252.39 1052.49,253.78 1050.88,255.18 1049.25,256.60 1047.61,258.04 1045.96,259.48 1044.29,260.94 1042.60,262.41 1040.90,263.90 1039.19,265.40 1037.46,266.91 1035.72,268.43 1033.97,269.97 1032.20,271.52 1030.41,273.08 1028.62,274.65 1026.80,276.23 1024.98,277.83 1023.14,279.44 1021.29,281.06 1019.43,282.69 1017.55,284.33 1015.66,285.99 1013.76,287.65 1011.84,289.33 1009.92,291.02 1007.98,292.71 1006.02,294.42 1004.06,296.14 1002.08,297.87 1000.10,299.61 998.10,301.36 996.09,303.12 994.06,304.89 992.03,306.67 990.94,307.63" type="driving"/>
    <lane id="-0_2" index="2" disallow="pedestrian tram rail_urban rail rail_electric rail_fast ship" speed="22.22" length="153.01" width="3.75" shape="1103.94,204.31 1103.12,205.00 1102.28,205.71 1101.42,206.44 1100.54,207.19 1099.64,207.95 1098.72,208.74 1097.78,209.54 1096.82,210.36 1095.84,211.20 1094.84,212.06 1093.82,212.93 1092.78,213.82 1091.72,214.73 1090.64,215.66 1089.55,216.60 1088.43,217.56 1087.30,218.54 1086.14,219.54 1084.97,220.55 1083.78,221.58 1082.57,222.62 1081.35,223.69 1080.10,224.76 1078.84,225.86 1077.56,226.97 1076.26,228.09 1074.94,229.24 1073.61,230.39 1072.26,231.57 1070.89,232.76 1069.51,233.96 1068.11,235.18 1066.69,236.41 1065.26,237.66 1063.80,238.93 1062.34,240.21 1060.85,241.50 1059.35,242.81 1057.84,244.13 1056.30,245.47 1054.76,246.82 1053.19,248.18 1051.61,249.56 1050.02,250.95 1048.41,252.36 1046.78,253.78 1045.14,255.21 1043.49,256.66 1041.82,258.12 1040.13,259.59 1038.44,261.08 1036.72,262.57 1034.99,264.09 1033.25,265.61 1031.50,267.15 1029.73,268.69 1027.94,270.25 1026.15,271.83 1024.33,273.41 1022.51,275.01 1020.67,276.62 1018.82,278.24 1016.96,279.87 1015.08,281.51 1013.19,283.17 1011.29,284.83 1009.37,286.51 1007.45,288.19 1005.51,289.89 1003.55,291.60 1001.59,293.32 999.62,295.05 997.63,296.79 995.63,298.54 993.62,300.30 991.59,302.07 989.56,303.85 988.47,304.80" type="driving"/>
  </edge>
  <edge id="-1" from="0" to="2.1" priority="1" type="driving" shape="984.22,306.03 982.86,307.22 981.49,308.42 980.12,309.62 978.74,310.83 977.36,312.04 975.97,313.25 974.58,314.47 973.18,315.69 971.78,316.92 970.37,318.15 968.96,319.38 967.55,320.62 966.13,321.86 964.70,323.10 963.28,324.35 961.84,325.61 960.41,326.86 958.97,328.12 957.52,329.38 956.08,330.65 954.62,331.92 953.17,333.19 951.71,334.47 950.24,335.75 948.77,337.03 947.30,338.31 945.82,339.60 944.34,340.90 942.86,342.19 941.37,343.49 939.88,344.79 938.39,346.10 936.89,347.41 935.39,348.72 933.88,350.03 932.37,351.35 930.86,352.67 929.34,353.99 927.82,355.32 926.30,356.64 924.77,357.98 923.24,359.31 921.71,360.65 920.17,361.99 918.63,363.33 917.09,364.67 915.55,366.02 914.00,367.37 912.45,368.72 910.89,370.07 909.33,371.43 907.77,372.79 906.21,374.15 904.64,375.51 903.07,376.88 901.50,378.25 899.93,379.62 898.35,380.99 896.77,382.37 895.18,383.74 893.60,385.12 892.01,386.50 890.42,387.89 888.83,389.27 887.23,390.66 885.63,392.05 884.03,393.44 882.43,394.83 880.82,396.22 879.21,397.62 877.60,399.02 875.99,400.42 874.38,401.82 872.76,403.22 871.14,404.62 869.52,406.03 867.90,407.44 866.27,408.85 864.64,410.26 863.01,411.67 861.38,413.08 859.75,414.50 858.12,415.91 856.48,417.33 854.84,418.75 853.20,420.17 851.56,421.59 849.92,423.01 848.27,424.43 846.62,425.85 844.98,427.28 843.33,428.70 841.67,430.13 840.02,431.56 838.37,432.99 836.71,434.42 835.06,435.85 833.40,437.28 831.74,438.71 830.08,440.14 828.42,441.58 826.75,443.01 825.09,444.44 823.42,445.88 821.76,447.32 820.09,448.75 818.42,450.19 816.75,451.62 815.08,453.06 813.41,454.50 811.74,455.94 810.07,457.38 808.39,458.82 806.72,460.25 805.04,461.69 803.37,463.13 801.69,464.57 800.01,466.01 798.34,467.45 796.66,468.89 794.98,470.33 793.30,471.77 791.62,473.21 789.94,474.65 788.26,476.09 786.58,477.53 784.90,478.97 783.22,480.41 781.54,481.85 779.86,483.28 778.18,484.72 776.49,486.16 774.81,487.60 773.13,489.03 771.45,490.47 769.77,491.90 768.09,493.34 766.41,494.77 764.72,496.21 763.04,497.64 761.36,499.07 759.68,500.50 758.00,501.93 756.32,503.36 754.64,504.79 752.96,506.22 751.28,507.65 749.61,509.08 747.93,510.50 746.25,511.93 744.57,513.35 742.90,514.77 741.22,516.19 739.55,517.61 737.88,519.03 736.20,520.45 734.53,521.87 732.86,523.28 731.19,524.70 729.52,526.11 727.85,527.52 726.18,528.93 724.51,530.34 722.85,531.75 721.18,533.15 719.52,534.56 717.86,535.96 716.20,537.36 714.54,538.76 712.88,540.16 711.22,541.55 709.57,542.95 707.91,544.34 706.26,545.73 704.61,547.12 702.96,548.50 701.31,549.89 699.66,551.27 698.01,552.65 696.37,554.03 694.73,555.40 693.09,556.78 691.45,558.15 689.81,559.52 688.17,560.89 686.54,562.25 684.91,563.62 683.28,564.98 681.65,566.34 680.03,567.69 678.40,569.05 676.78,570.40 675.16,571.75 673.54,573.09 671.93,574.44 670.31,575.78 668.70,577.12 667.09,578.45 665.49,579.79 663.88,581.12 662.28,582.45 660.68,583.77 659.08,585.09 657.49,586.41 655.90,587.73 654.31,589.04 652.72,590.35 651.14,591.66 649.56,592.96 647.98,594.27 646.40,595.56 644.83,596.86 643.26,598.15 641.69,599.44 640.12,600.72 638.56,602.01 637.00,603.29 635.45,604.56 633.89,605.83 632.34,607.10 630.80,608.37 629.25,609.63 627.71,610.89 626.18,612.14 624.64,613.39 623.11,614.64 621.58,615.89 620.06,617.13 618.54,618.36 617.02,619.59 615.51,620.82 614.00,622.05 612.49,623.27 610.98,624.49 609.49,625.70 607.99,626.91 606.50,628.12 605.01,629.32 603.52,630.51 602.04,631.71 600.56,632.90 599.09,634.08 597.62,635.26 596.15,636.44 594.69,637.61 593.23,638.78 591.78,639.94 590.33,641.10 588.88,642.26 587.44,643.41 586.00,644.55 584.57,645.69 583.14,646.83 581.71,647.96 580.29,649.09 578.88,650.21 577.47,651.33 576.06,652.44 574.66,653.55 573.26,654.66 571.86,655.75 570.47,656.85 569.09,657.94 567.71,659.02 566.33,660.10 564.96,661.18 563.59,662.25 562.23,663.31 560.88,664.37 559.52,665.42 558.18,666.47 556.83,667.52 555.50,668.55 554.17,669.59 552.84,670.62 551.52,671.64 550.20,672.65 548.89,673.67 547.58,674.67 546.28,675.67 544.98,676.67 543.69,677.66 542.41,678.64 541.13,679.62 539.85,680.59 538.58,681.56 537.32,682.52 536.06,683.48 534.80,684.43 533.56,685.37 532.31,686.31 531.08,687.24 529.85,688.17 528.62,689.09 527.40,690.00 526.19,690.91 524.98,691.81 523.78,692.71 522.58,693.60 521.39,694.48 520.21,695.36 519.03,696.23 517.86,697.10 516.69,697.96 515.53,698.81 514.38,699.65 513.23,700.49 512.09,701.33 510.95,702.15">