<?xml version='1.0' encoding='UTF-8'?>
<!-- generated on 2022-09-05 18:35:33 by Eclipse SUMO netconvert Version 1.13.0
<configuration xmlns:xsi="http://www.w3.org/2001/XMLSchema-instance" xsi:noNamespaceSchemaLocation="http://sumo.dlr.de/xsd/netconvertConfiguration.xsd">

    <input>
        <opendrive-files value="map\classification\7\31211162\31211162.xodr"/>
    </input>

    <output>
        <output-file value="C:\Users\LinGe\AppData\Local\Temp\tmpc4316ch8\31211162.net.xml"/>
    </output>

    <processing>
        <geometry.max-grade.fix value="false"/>
    </processing>

    <tls_building>
        <tls.left-green.time value="0"/>
    </tls_building>

    <junctions>
        <rectangular-lane-cut value="true"/>
    </junctions>

    <report>
        <aggregate-warnings value="5"/>
    </report>

</configuration>
-->
<net xmlns:xsi="http://www.w3.org/2001/XMLSchema-instance" version="1.9" junctionCornerDetail="5" rectangularLaneCut="true" limitTurnSpeed="5.50" xsi:noNamespaceSchemaLocation="http://sumo.dlr.de/xsd/net_file.xsd">
  <location netOffset="1.56,101.26" convBoundary="0.00,0.00,1102.73,1302.51" origBoundary="-1.56,-101.26,1101.18,1201.26" projParameter="!"/>
  <type id="bidirectional" priority="1" speed="1.39" disallow="pedestrian tram rail_urban rail rail_electric rail_fast ship" width="3.65"/>
  <type id="border" priority="0" speed="1.39" disallow="all" discard="1" width="0.10"/>
  <type id="driving" priority="1" speed="13.89" disallow="pedestrian tram rail_urban rail rail_electric rail_fast ship" width="3.65"/>
  <type id="entry" priority="1" speed="22.22" disallow="pedestrian tram rail_urban rail rail_electric rail_fast ship" width="3.65"/>
  <type id="exit" priority="1" speed="22.22" disallow="pedestrian tram rail_urban rail rail_electric rail_fast ship" width="3.65"/>
  <type id="median" priority="0" speed="1.39" disallow="all" discard="1" width="0.10"/>
  <type id="mwyEntry" priority="1" speed="22.22" allow="private emergency authority army vip passenger hov taxi bus coach delivery truck trailer motorcycle evehicle custom1 custom2" width="3.65"/>
  <type id="mwyExit" priority="1" speed="22.22" allow="private emergency authority army vip passenger hov taxi bus coach delivery truck trailer motorcycle evehicle custom1 custom2" width="3.65"/>
  <type id="none" priority="0" speed="1.39" disallow="all" discard="1" width="1.00"/>
  <type id="offRamp" priority="1" speed="22.22" allow="private emergency authority army vip passenger hov taxi bus coach delivery truck trailer motorcycle evehicle custom1 custom2" width="3.65"/>
  <type id="onRamp" priority="1" speed="22.22" allow="private emergency authority army vip passenger hov taxi bus coach delivery truck trailer motorcycle evehicle custom1 custom2" width="3.65"/>
  <type id="parking" priority="1" speed="1.39" disallow="pedestrian tram rail_urban rail rail_electric rail_fast ship" width="2.50"/>
  <type id="rail" priority="3" speed="33.33" allow="rail_urban rail rail_electric rail_fast" width="3.65"/>
  <type id="restricted" priority="0" speed="13.89" disallow="all" width="3.65"/>
  <type id="roadWorks" priority="0" speed="1.39" allow="authority" width="3.65"/>
  <type id="shoulder" priority="0" speed="1.39" disallow="all" discard="1" width="1.00"/>
  <type id="special1" priority="1" speed="22.22" allow="custom1" discard="1" width="3.65"/>
  <type id="special2" priority="1" speed="22.22" allow="custom2" discard="1" width="3.65"/>
  <type id="special3" priority="1" speed="22.22" allow="custom1 custom2" discard="1" width="3.65"/>
  <type id="stop" priority="1" speed="13.89" disallow="pedestrian tram rail_urban rail rail_electric rail_fast ship" width="3.65"/>
  <type id="tram" priority="2" speed="13.89" allow="tram" width="3.65"/>
  <edge id=":0_0" function="internal">
    <lane id=":0_0_0" index="0" disallow="pedestrian tram rail_urban rail rail_electric rail_fast ship" speed="15.28" length="146.12" width="3.75" shape="1045.57,265.78 939.18,365.95"/>
  </edge>
  <edge id=":0_1" function="internal">
    <lane id=":0_1_0" index="0" disallow="pedestrian tram rail_urban rail rail_electric rail_fast ship" speed="22.22" length="146.20" width="3.75" shape="1045.57,265.78 936.42,363.06"/>
    <lane id=":0_1_1" index="1" disallow="pedestrian tram rail_urban rail rail_electric rail_fast ship" speed="22.22" length="146.20" width="3.75" shape="1043.08,262.98 933.93,360.26"/>
    <lane id=":0_1_2" index="2" disallow="pedestrian tram rail_urban rail rail_electric rail_fast ship" speed="22.22" length="146.20" width="3.75" shape="1040.58,260.18 931.44,357.45"/>
  </edge>
  <edge id=":1_0" function="internal">
    <lane id=":1_0_0" index="0" disallow="pedestrian tram rail_urban rail rail_electric rail_fast ship" speed="15.28" length="26.50" width="3.75" shape="382.23,773.72 389.60,768.64,0.00 395.06,763.79,0.01 398.91,759.44,0.01 401.47,755.82,0.01"/>
  </edge>
  <edge id=":1_1" function="internal">
    <lane id=":1_1_0" index="0" disallow="pedestrian tram rail_urban rail rail_electric rail_fast ship" speed="22.22" length="26.90" width="3.75" shape="382.23,773.72 405.14,759.67"/>
    <lane id=":1_1_1" index="1" disallow="pedestrian tram rail_urban rail rail_electric rail_fast ship" speed="22.22" length="26.90" width="3.75" shape="384.18,776.93 407.11,762.86"/>
    <lane id=":1_1_2" index="2" disallow="pedestrian tram rail_urban rail rail_electric rail_fast ship" speed="22.22" length="26.90" width="3.75" shape="386.12,780.13 409.08,766.05"/>
  </edge>
  <edge id=":13.12_0" function="internal">
    <lane id=":13.12_0_0" index="0" disallow="pedestrian tram rail_urban rail rail_electric rail_fast ship" speed="22.22" length="0.30" width="3.75" shape="501.39,721.77,20.00 501.20,721.53,20.00"/>
    <lane id=":13.12_0_1" index="1" disallow="pedestrian tram rail_urban rail rail_electric rail_fast ship" speed="22.22" length="0.30" width="3.75" shape="504.31,719.41,20.00 504.12,719.18,20.00"/>
    <lane id=":13.12_0_2" index="2" disallow="pedestrian tram rail_urban rail rail_electric rail_fast ship" speed="22.22" length="0.30" width="3.75" shape="507.23,717.05,20.00 507.04,716.82,20.00"/>
  </edge>
  <edge id=":16.15_0" function="internal">
    <lane id=":16.15_0_0" index="0" disallow="pedestrian tram rail_urban rail rail_electric rail_fast ship" speed="11.11" length="0.30" width="3.75" shape="554.91,934.44,9.15 554.63,934.34,9.14"/>
  </edge>
  <edge id=":18.17_0" function="internal">
    <lane id=":18.17_0_0" index="0" disallow="pedestrian tram rail_urban rail rail_electric rail_fast ship" speed="8.33" length="0.28" width="3.75" shape="714.24,732.66,11.13 714.20,732.94,11.14"/>
  </edge>
  <edge id=":2_0" function="internal">
    <lane id=":2_0_0" index="0" disallow="pedestrian tram rail_urban rail rail_electric rail_fast ship" speed="16.67" length="57.41" width="3.75" shape="933.38,1193.17,20.00 922.92,1183.01,20.00 909.69,1171.01,20.00 897.68,1160.45,20.00 890.85,1154.63,20.00"/>
  </edge>
  <edge id=":2_1" function="internal">
    <lane id=":2_1_0" index="0" disallow="pedestrian tram rail_urban rail rail_electric rail_fast ship" speed="22.22" length="57.52" width="3.75" shape="933.38,1193.17,20.00 893.72,1151.50,20.00"/>
    <lane id=":2_1_1" index="1" disallow="pedestrian tram rail_urban rail rail_electric rail_fast ship" speed="22.22" length="57.52" width="3.75" shape="936.10,1190.58,20.00 896.44,1148.92,20.00"/>
    <lane id=":2_1_2" index="2" disallow="pedestrian tram rail_urban rail rail_electric rail_fast ship" speed="22.22" length="57.52" width="3.75" shape="938.81,1187.99,20.00 899.16,1146.34,20.00"/>
  </edge>
  <edge id=":2.1_0" function="internal">
    <lane id=":2.1_0_0" index="0" disallow="pedestrian tram rail_urban rail rail_electric rail_fast ship" speed="22.22" length="0.30" width="3.75" shape="536.74,699.59 536.50,699.77"/>
    <lane id=":2.1_0_1" index="1" disallow="pedestrian tram rail_urban rail rail_electric rail_fast ship" speed="22.22" length="0.30" width="3.75" shape="534.53,696.56 534.29,696.74"/>
    <lane id=":2.1_0_2" index="2" disallow="pedestrian tram rail_urban rail rail_electric rail_fast ship" speed="22.22" length="0.30" width="3.75" shape="532.33,693.53 532.09,693.70"/>
  </edge>
  <edge id=":21.20_0" function="internal">
    <lane id=":21.20_0_0" index="0" disallow="pedestrian tram rail_urban rail rail_electric rail_fast ship" speed="9.72" length="0.30" width="3.75" shape="48.08,439.82,6.36 48.12,439.52,6.35"/>
  </edge>
  <edge id=":23.22_0" function="internal">
    <lane id=":23.22_0_0" index="0" disallow="pedestrian tram rail_urban rail rail_electric rail_fast ship" speed="8.33" length="0.30" width="3.75" shape="380.95,193.01,6.32 381.24,193.06,6.32"/>
  </edge>
  <edge id=":3_0" function="internal">
    <lane id=":3_0_0" index="0" disallow="pedestrian tram rail_urban rail rail_electric rail_fast ship" speed="16.67" length="75.83" width="3.75" shape="259.23,876.72,0.00 248.44,881.63,0.00 228.28,891.20,0.00 206.53,901.80,0.00 190.98,909.76"/>
  </edge>
  <edge id=":3_1" function="internal">
    <lane id=":3_1_0" index="0" disallow="pedestrian tram rail_urban rail rail_electric rail_fast ship" speed="22.22" length="75.45" width="3.75" shape="256.93,873.04 190.98,909.76"/>
    <lane id=":3_1_1" index="1" disallow="pedestrian tram rail_urban rail rail_electric rail_fast ship" speed="22.22" length="75.45" width="3.75" shape="255.09,869.77 189.17,906.48"/>
    <lane id=":3_1_2" index="2" disallow="pedestrian tram rail_urban rail rail_electric rail_fast ship" speed="22.22" length="75.45" width="3.75" shape="253.25,866.50 187.36,903.20"/>
  </edge>
  <edge id=":4_0" function="internal">
    <lane id=":4_0_0" index="0" disallow="pedestrian tram rail_urban rail rail_electric rail_fast ship" speed="11.11" length="3.00" width="3.75" shape="696.17,1017.08,13.68 693.65,1015.45,13.60"/>
  </edge>
  <edge id=":4_1" function="internal">
    <lane id=":4_1_0" index="0" disallow="pedestrian tram rail_urban rail rail_electric rail_fast ship" speed="10.42" length="3.00" width="3.75" shape="696.17,1017.08,13.68 693.65,1015.45,13.64"/>
  </edge>
  <edge id=":5_0" function="internal">
    <lane id=":5_0_0" index="0" disallow="pedestrian tram rail_urban rail rail_electric rail_fast ship" speed="15.28" length="52.49" width="3.75" shape="886.01,1104.01,19.83 890.90,1110.61,19.86 899.63,1121.93,19.90 909.76,1134.53,19.96 918.85,1144.93,20.00"/>
  </edge>
  <edge id=":5_1" function="internal">
    <lane id=":5_1_0" index="0" disallow="pedestrian tram rail_urban rail rail_electric rail_fast ship" speed="22.22" length="52.08" width="3.75" shape="882.98,1107.18,20.00 918.85,1144.93,20.00"/>
    <lane id=":5_1_1" index="1" disallow="pedestrian tram rail_urban rail rail_electric rail_fast ship" speed="22.22" length="52.08" width="3.75" shape="880.26,1109.77,20.00 916.13,1147.52,20.00"/>
    <lane id=":5_1_2" index="2" disallow="pedestrian tram rail_urban rail rail_electric rail_fast ship" speed="22.22" length="52.08" width="3.75" shape="877.54,1112.35,20.00 913.42,1150.10,20.00"/>
  </edge>
  <edge id=":6_0" function="internal">
    <lane id=":6_0_0" index="0" disallow="pedestrian tram rail_urban rail rail_electric rail_fast ship" speed="15.97" length="41.87" width="3.75" shape="726.03,510.52,0.02 731.75,507.33,0.02 740.78,501.69,0.01 751.11,494.61,0.01 760.67,487.13"/>
  </edge>
  <edge id=":6_1" function="internal">
    <lane id=":6_1_0" index="0" disallow="pedestrian tram rail_urban rail rail_electric rail_fast ship" speed="22.22" length="41.21" width="3.75" shape="729.45,513.99 760.67,487.13"/>
    <lane id=":6_1_1" index="1" disallow="pedestrian tram rail_urban rail rail_electric rail_fast ship" speed="22.22" length="41.21" width="3.75" shape="731.89,516.84 763.13,489.96"/>
    <lane id=":6_1_2" index="2" disallow="pedestrian tram rail_urban rail rail_electric rail_fast ship" speed="22.22" length="41.21" width="3.75" shape="734.33,519.69 765.58,492.80"/>
  </edge>
  <edge id=":6.5_0" function="internal">
    <lane id=":6.5_0_0" index="0" disallow="pedestrian tram rail_urban rail rail_electric rail_fast ship" speed="22.22" length="0.30" width="3.75" shape="523.12,681.37 523.36,681.19"/>
    <lane id=":6.5_0_1" index="1" disallow="pedestrian tram rail_urban rail rail_electric rail_fast ship" speed="22.22" length="0.30" width="3.75" shape="525.32,684.40 525.57,684.23"/>
    <lane id=":6.5_0_2" index="2" disallow="pedestrian tram rail_urban rail rail_electric rail_fast ship" speed="22.22" length="0.30" width="3.75" shape="527.53,687.44 527.77,687.26"/>
  </edge>
  <edge id=":7_0" function="internal">
    <lane id=":7_0_0" index="0" disallow="pedestrian tram rail_urban rail rail_electric rail_fast ship" speed="8.33" length="70.03" width="3.75" shape="717.49,763.61,13.69 721.18,775.38,13.69 728.35,796.89,13.71 735.64,818.35,13.72 739.75,830.00,13.73"/>
  </edge>
  <edge id=":7_1" function="internal">
    <lane id=":7_1_0" index="0" disallow="pedestrian tram rail_urban rail rail_electric rail_fast ship" speed="8.33" length="69.65" width="3.75" shape="713.84,765.34,13.60 739.75,830.00,13.73"/>
  </edge>
  <edge id=":9.8_0" function="internal">
    <lane id=":9.8_0_0" index="0" disallow="pedestrian tram rail_urban rail rail_electric rail_fast ship" speed="22.22" length="0.30" width="3.75" shape="518.90,707.24,20.00 519.09,707.47,20.00"/>
    <lane id=":9.8_0_1" index="1" disallow="pedestrian tram rail_urban rail rail_electric rail_fast ship" speed="22.22" length="0.30" width="3.75" shape="515.99,709.59,20.00 516.17,709.83,20.00"/>
    <lane id=":9.8_0_2" index="2" disallow="pedestrian tram rail_urban rail rail_electric rail_fast ship" speed="22.22" length="0.30" width="3.75" shape="513.07,711.95,20.00 513.26,712.19,20.00"/>
  </edge>
  <edge id="-0" from="0.begin" to="0" priority="1" type="driving" shape="1102.73,202.87 1101.78,203.69 1100.80,204.54 1099.79,205.40 1098.75,206.29 1097.70,207.21 1096.61,208.15 1095.50,209.11 1094.37,210.10 1093.21,211.11 1092.02,212.14 1090.81,213.20 1089.58,214.28 1088.32,215.38 1087.04,216.50 1085.73,217.65 1084.40,218.82 1083.05,220.01 1081.67,221.22 1080.27,222.45 1078.85,223.71 1077.40,224.98 1075.94,226.28 1074.44,227.59 1072.93,228.93 1071.40,230.29 1069.84,231.67 1068.26,233.07 1066.66,234.48 1065.04,235.92 1063.40,237.38 1061.73,238.85 1060.05,240.35 1058.35,241.86 1056.62,243.40 1054.87,244.95 1053.11,246.52 1051.32,248.11 1049.52,249.71 1047.69,251.34 1045.85,252.98 1043.99,254.64 1042.10,256.32 1040.20,258.01 1038.28,259.72 1036.35,261.45">
    <lane id="-0_0" index="0" disallow="pedestrian tram rail_urban rail rail_electric rail_fast ship" speed="22.22" length="84.42" width="3.75" shape="1108.83,209.99 1107.88,210.81 1106.91,211.64 1105.91,212.50 1104.88,213.39 1103.83,214.30 1102.75,215.23 1101.65,216.19 1100.52,217.17 1099.36,218.18 1098.18,219.21 1096.98,220.26 1095.75,221.33 1094.50,222.43 1093.22,223.55 1091.92,224.69 1090.59,225.86 1089.24,227.05 1087.87,228.25 1086.47,229.49 1085.05,230.74 1083.61,232.01 1082.14,233.30 1080.65,234.62 1079.14,235.95 1077.61,237.31 1076.06,238.69 1074.48,240.08 1072.88,241.50 1071.26,242.94 1069.62,244.39 1067.96,245.87 1066.28,247.36 1064.57,248.87 1062.85,250.41 1061.10,251.96 1059.34,253.52 1057.55,255.11 1055.75,256.72 1053.93,258.34 1052.08,259.98 1050.22,261.64 1048.34,263.32 1046.44,265.01 1045.57,265.78" type="driving"/>
    <lane id="-0_1" index="1" disallow="pedestrian tram rail_urban rail rail_electric rail_fast ship" speed="22.22" length="84.42" width="3.75" shape="1106.39,207.15 1105.44,207.96 1104.46,208.80 1103.46,209.66 1102.43,210.55 1101.38,211.46 1100.30,212.40 1099.19,213.36 1098.06,214.34 1096.90,215.35 1095.72,216.38 1094.51,217.44 1093.28,218.51 1092.03,219.61 1090.75,220.73 1089.44,221.88 1088.11,223.04 1086.76,224.23 1085.39,225.44 1083.99,226.67 1082.57,227.92 1081.13,229.20 1079.66,230.49 1078.17,231.81 1076.66,233.15 1075.12,234.50 1073.57,235.88 1071.99,237.28 1070.39,238.69 1068.77,240.13 1067.13,241.59 1065.47,243.06 1063.79,244.56 1062.08,246.07 1060.36,247.60 1058.61,249.15 1056.85,250.72 1055.06,252.31 1053.26,253.92 1051.43,255.54 1049.59,257.18 1047.73,258.84 1045.85,260.52 1043.95,262.21 1043.08,262.98" type="driving"/>
    <lane id="-0_2" index="2" disallow="pedestrian tram rail_urban rail rail_electric rail_fast ship" speed="22.22" length="84.42" width="3.75" shape="1103.95,204.30 1103.00,205.12 1102.02,205.96 1101.01,206.82 1099.98,207.71 1098.92,208.63 1097.84,209.57 1096.73,210.53 1095.60,211.51 1094.44,212.52 1093.25,213.56 1092.05,214.61 1090.81,215.69 1089.56,216.79 1088.27,217.91 1086.97,219.06 1085.64,220.23 1084.29,221.41 1082.91,222.63 1081.51,223.86 1080.09,225.11 1078.64,226.39 1077.18,227.68 1075.69,229.00 1074.17,230.34 1072.64,231.69 1071.08,233.07 1069.50,234.47 1067.91,235.89 1066.28,237.32 1064.64,238.78 1062.98,240.26 1061.30,241.75 1059.59,243.27 1057.87,244.80 1056.12,246.35 1054.35,247.92 1052.57,249.51 1050.76,251.11 1048.94,252.74 1047.10,254.38 1045.23,256.04 1043.35,257.72 1041.45,259.41 1040.58,260.18" type="driving"/>
  </edge>
  <edge id="-1" from="0" to="2.1" priority="1" type="driving" shape="1036.35,261.45 1035.19,262.48 1034.03,263.51 1032.86,264.55 1031.69,265.60 1030.51,266.65 1029.32,267.71 1028.13,268.77 1026.93,269.84 1025.73,270.92 1024.52,272.00 1023.30,273.08 1022.08,274.17 1020.85,275.27 1019.62,276.37 1018.37,277.47 1017.13,278.59 1015.88,279.70 1014.62,280.83 1013.36,281.95 1012.09,283.09 1010.81,284.22 1009.53,285.36 1008.25,286.51 1006.96,287.66 1005.66,288.82 1004.36,289.98 1003.05,291.15 1001.74,292.32 1000.42,293.50 999.10,294.68 997.77,295.86 996.43,297.05 995.09,298.25 993.75,299.45 992.40,300.65 991.05,301.86 989.69,303.07 988.32,304.29 986.95,305.51 985.58,306.74 984.20,307.97 982.82,309.20 981.43,310.44 980.03,311.68 978.63,312.93 977.23,314.18 975.82,315.44 974.41,316.69 973.00,317.96 971.57,319.22 970.15,320.50 968.72,321.77 967.28,323.05 965.84,324.33 964.40,325.62 962.95,326.91 961.50,328.20 960.05,329.50 958.59,330.80 957.12,332.10 955.65,333.41 954.18,334.72 952.70,336.04 951.22,337.35 949.74,338.68 948.25,340.00 946.76,341.33 945.26,342.66 943.76,343.99 942.26,345.33 940.75,346.67 939.24,348.02 937.72,349.36 936.20,350.71 934.68,352.07 933.15,353.42 931.62,354.78 930.09,356.14 928.56,357.51 927.02,358.88 925.47,360.25 923.93,361.62 922.38,363.00 920.82,364.37 919.27,365.76 917.71,367.14 916.15,368.53 914.58,369.91 913.01,371.31 911.44,372.70 909.86,374.10 908.29,375.49 906.71,376.89 905.12,378.30 903.54,379.70 901.95,381.11 900.36,382.52 898.76,383.93 897.16,385.34 895.56,386.76 893.96,388.18 892.36,389.60 890.75,391.02 889.14,392.44 887.53,393.87 885.91,395.30 884.29,396.73 882.68,398.16 881.05,399.59 879.43,401.02 877.80,402.46 876.17,403.90 874.54,405.34 872.91,406.78 871.27,408.22 869.64,409.66 868.00,411.11 866.36,412.55 864.71,414.00 863.07,415.45 861.42,416.90 859.77,418.35 858.12,419.81 856.47,421.26 854.82,422.71 853.16,424.17 851.51,425.63 849.85,427.09 848.19,428.54 846.52,430.00 844.86,431.47 843.20,432.93 841.53,434.39 839.86,435.85 838.19,437.32 836.52,438.78 834.85,440.25 833.18,441.71 831.51,443.18 829.83,444.65 828.16,446.11 826.48,447.58 824.80,449.05 823.12,450.52 821.44,451.99 819.76,453.46 818.08,454.93 816.40,456.40 814.71,457.87 813.03,459.34 811.34,460.81 809.66,462.28 807.97,463.75 806.29,465.22 804.60,466.69 802.91,468.16 801.22,469.63 799.53,471.10 797.84,472.57 796.15,474.04 794.46,475.51 792.77,476.98 791.08,478.45 789.39,479.92 787.70,481.39 786.01,482.86 784.32,484.33 782.63,485.79 780.93,487.26 779.24,488.73 777.55,490.19 775.86,491.66 774.17,493.12 772.48,494.58 770.79,496.05 769.10,497.51 767.40,498.97 765.71,500.43 764.02,501.89 762.33,503.34 760.65,504.80 758.96,506.26 757.27,507.71 755.58,509.17 753.89,510.62 752.21,512.07 750.52,513.52 748.84,514.97 747.15,516.42 745.47,517.86 743.78,519.31 742.10,520.75 740.42,522.19 738.74,523.63 737.06,525.07 735.38,526.51 733.71,527.95 732.03,529.38 730.35,530.81 728.68,532.24 727.01,533.67 725.33,535.10 723.66,536.53 721.99,537.95 720.33,539.37 718.66,540.79 716.99,542.21 715.33,543.62 713.67,545.04 712.01,546.45 710.35,547.86 708.69,549.27 707.03,550.67 705.38,552.07 703.72,553.47 702.07,554.87 700.42,556.27 698.78,557.66 697.13,559.05 695.49,560.44 693.84,561.83 692.20,563.21 690.57,564.59 688.93,565.97 687.30,567.34 685.66,568.72 684.03,570.09 682.41,571.45 680.78,572.82 679.16,574.18 677.54,575.54 675.92,576.90 674.30,578.25 672.69,579.60 671.08,580.95 669.47,582.29 667.86,583.63 666.26,584.97 664.66,586.30 663.06,587.63 661.46,588.96 659.87,590.29 658.28,591.61 656.69,592.92 655.11,594.24 653.53,595.55 651.95,596.86 650.37,598.16 648.80,599.46 647.23,600.76 645.66,602.05 644.10,603.34 642.53,604.63 640.98,605.91 639.42,607.19 637.87,608.46 636.32,609.73 634.78,611.00 633.24,612.26 631.70,613.52 630.16,614.77 628.63,616.02 627.11,617.27 625.58,618.51 624.06,619.75 622.54,620.99 621.03,622.22 619.52,623.44 618.01,624.66 616.51,625.88 615.01,627.09 613.52,628.30 612.03,629.50 610.54,630.70 609.06,631.90 607.58,633.09 606.11,634.27 604.64,635.45 603.17,636.63 601.71,637.80 600.25,638.96 598.79,640.13 597.34,641.28 595.90,642.43 594.46,643.58 593.02,644.72 591.59,645.86 590.16,646.99 588.74,648.12 587.32,649.24 585.90,650.36 584.49,651.47 583.09,652.57 581.69,653.67 580.29,654.77 578.90,655.86 577.51,656.95 576.13,658.02 574.76,659.10 573.38,660.17 572.02,661.23 570.66,662.29 569.30,663.34 567.95,664.39 566.60,665.43 565.26,666.46 563.92,667.49 562.59,668.51 561.26,669.53 559.94,670.54 558.63,671.55 557.32,672.55 556.01,673.54 554.71,674.53 553.42,675.51 552.13,676.48 550.85,677.45 549.57,678.42 548.30,679.37 547.03,680.32 545.77,681.27 544.52,682.21 543.27,683.14 542.03,684.06 540.79,684.98 539.56,685.90 538.33,686.80 537.11,687.70 535.90,688.59 534.69,689.48 533.49,690.36 532.29,691.23 531.10,692.10">
    <lane id="-1_0" index="0" disallow="pedestrian tram rail_urban rail rail_electric rail_fast ship" speed="22.22" length="522.29" width="3.75" shape="936.42,363.06 936.32,363.15 934.78,364.52 933.24,365.89 931.70,367.26 930.15,368.63 928.60,370.01 927.05,371.39 925.49,372.77 923.93,374.15 922.37,375.54 920.80,376.93 919.23,378.32 917.66,379.71 916.08,381.11 914.51,382.51 912.92,383.91 911.34,385.31 909.75,386.72 908.16,388.13 906.57,389.54 904.98,390.95 903.38,392.36 901.78,393.78 900.17,395.20 898.57,396.62 896.96,398.04 895.35,399.47 893.74,400.89 892.12,402.32 890.50,403.75 888.88,405.18 887.26,406.62 885.63,408.05 884.01,409.49 882.38,410.93 880.75,412.37 879.11,413.81 877.48,415.25 875.84,416.69 874.20,418.14 872.56,419.59 870.91,421.04 869.27,422.49 867.62,423.94 865.97,425.39 864.32,426.84 862.66,428.30 861.01,429.75 859.35,431.21 857.70,432.67 856.04,434.13 854.37,435.59 852.71,437.05 851.05,438.51 849.38,439.97 847.71,441.44 846.05,442.90 844.38,444.36 842.71,445.83 841.03,447.30 839.36,448.76 837.68,450.23 836.01,451.70 834.33,453.17 832.65,454.64 830.97,456.11 829.29,457.58 827.61,459.05 825.93,460.52 824.25,461.99 822.56,463.46 820.88,464.93 819.19,466.40 817.51,467.87 815.82,469.35 814.13,470.82 812.45,472.29 810.76,473.76 809.07,475.23 807.38,476.70 805.69,478.18 804.00,479.65 802.31,481.12 800.61,482.59 798.92,484.06 797.23,485.53 795.54,487.00 793.85,488.47 792.15,489.94 790.46,491.41 788.77,492.88 787.07,494.34 785.38,495.81 783.69,497.28 782.00,498.74 780.30,500.21 778.61,501.67 776.92,503.14 775.23,504.60 773.53,506.06 771.84,507.52 770.15,508.98 768.46,510.44 766.77,511.90 765.08,513.36 763.39,514.81 761.70,516.27 760.01,517.72 758.32,519.18 756.63,520.63 754.95,522.08 753.26,523.53 751.58,524.98 749.89,526.42 748.21,527.87 746.52,529.31 744.84,530.75 743.16,532.19 741.48,533.63 739.80,535.07 738.12,536.51 736.44,537.94 734.77,539.37 733.09,540.80 731.42,542.23 729.75,543.66 728.08,545.08 726.41,546.51 724.74,547.93 723.07,549.35 721.40,550.76 719.74,552.18 718.08,553.59 716.41,555.00 714.75,556.41 713.10,557.82 711.44,559.23 709.78,560.63 708.13,562.03 706.48,563.43 704.83,564.82 703.18,566.21 701.53,567.60 699.89,568.99 698.25,570.38 696.61,571.76 694.97,573.14 693.33,574.52 691.70,575.89 690.07,577.26 688.44,578.63 686.81,580.00 685.18,581.36 683.56,582.73 681.94,584.08 680.32,585.44 678.70,586.79 677.09,588.14 675.48,589.49 673.87,590.83 672.26,592.17 670.66,593.51 669.06,594.84 667.46,596.17 665.86,597.50 664.27,598.82 662.68,600.14 661.09,601.46 659.51,602.77 657.92,604.08 656.34,605.39 654.77,606.69 653.19,607.99 651.62,609.28 650.06,610.58 648.49,611.86 646.93,613.15 645.37,614.43 643.82,615.71 642.27,616.98 640.72,618.25 639.18,619.51 637.63,620.78 636.10,622.03 634.56,623.29 633.03,624.54 631.50,625.78 629.98,627.02 628.46,628.26 626.94,629.49 625.43,630.72 623.92,631.95 622.41,633.17 620.91,634.38 619.41,635.59 617.92,636.80 616.43,638.00 614.94,639.20 613.46,640.39 611.98,641.58 610.50,642.76 609.03,643.94 607.56,645.12 606.10,646.29 604.64,647.45 603.19,648.61 601.74,649.77 600.29,650.92 598.85,652.06 597.41,653.21 595.98,654.34 594.55,655.47 593.13,656.60 591.71,657.72 590.29,658.83 588.88,659.94 587.48,661.05 586.08,662.15 584.68,663.24 583.29,664.33 581.90,665.41 580.52,666.49 579.14,667.57 577.77,668.63 576.40,669.69 575.04,670.75 573.68,671.80 572.33,672.85 570.98,673.89 569.64,674.92 568.30,675.95 566.97,676.97 565.64,677.99 564.32,679.00 563.00,680.00 561.69,681.00 560.38,681.99 559.08,682.98 557.79,683.96 556.50,684.94 555.21,685.91 553.93,686.87 552.66,687.82 551.39,688.77 550.13,689.72 548.87,690.66 547.62,691.59 546.37,692.51 545.13,693.43 543.90,694.34 542.67,695.25 541.45,696.15 540.23,697.04 539.02,697.93 537.82,698.81 536.74,699.59" type="driving"/>
    <lane id="-1_1" index="1" disallow="pedestrian tram rail_urban rail rail_electric rail_fast ship" speed="22.22" length="522.29" width="3.75" shape="933.93,360.26 933.83,360.35 932.29,361.71 930.75,363.08 929.21,364.45 927.66,365.83 926.11,367.20 924.56,368.58 923.00,369.96 921.44,371.35 919.88,372.73 918.31,374.12 916.74,375.51 915.17,376.91 913.60,378.30 912.02,379.70 910.44,381.10 908.85,382.51 907.27,383.91 905.68,385.32 904.09,386.73 902.49,388.14 900.89,389.56 899.29,390.97 897.69,392.39 896.08,393.81 894.48,395.23 892.87,396.66 891.25,398.08 889.64,399.51 888.02,400.94 886.40,402.37 884.78,403.81 883.15,405.24 881.52,406.68 879.90,408.11 878.26,409.55 876.63,411.00 875.00,412.44 873.36,413.88 871.72,415.33 870.08,416.77 868.43,418.22 866.79,419.67 865.14,421.12 863.49,422.57 861.84,424.03 860.19,425.48 858.53,426.94 856.88,428.39 855.22,429.85 853.56,431.31 851.90,432.77 850.24,434.23 848.57,435.69 846.91,437.15 845.24,438.62 843.57,440.08 841.90,441.55 840.23,443.01 838.56,444.48 836.89,445.94 835.21,447.41 833.54,448.88 831.86,450.35 830.18,451.81 828.50,453.28 826.83,454.75 825.14,456.22 823.46,457.69 821.78,459.16 820.10,460.63 818.41,462.11 816.73,463.58 815.04,465.05 813.36,466.52 811.67,467.99 809.98,469.46 808.29,470.93 806.60,472.40 804.92,473.88 803.23,475.35 801.54,476.82 799.84,478.29 798.15,479.76 796.46,481.23 794.77,482.70 793.08,484.17 791.39,485.64 789.70,487.11 788.00,488.58 786.31,490.04 784.62,491.51 782.93,492.98 781.23,494.44 779.54,495.91 777.85,497.37 776.16,498.84 774.47,500.30 772.77,501.76 771.08,503.22 769.39,504.69 767.70,506.14 766.01,507.60 764.32,509.06 762.63,510.52 760.94,511.97 759.25,513.43 757.56,514.88 755.88,516.33 754.19,517.79 752.50,519.23 750.82,520.68 749.13,522.13 747.45,523.58 745.77,525.02 744.08,526.46 742.40,527.91 740.72,529.35 739.04,530.78 737.36,532.22 735.68,533.66 734.01,535.09 732.33,536.52 730.66,537.95 728.99,539.38 727.31,540.81 725.64,542.23 723.97,543.65 722.31,545.07 720.64,546.49 718.97,547.91 717.31,549.32 715.65,550.74 713.99,552.15 712.33,553.55 710.67,554.96 709.01,556.36 707.36,557.77 705.71,559.17 704.06,560.56 702.41,561.96 700.76,563.35 699.12,564.74 697.47,566.13 695.83,567.51 694.19,568.89 692.55,570.27 690.92,571.65 689.28,573.02 687.65,574.39 686.02,575.76 684.40,577.13 682.77,578.49 681.15,579.85 679.53,581.21 677.91,582.56 676.30,583.91 674.68,585.26 673.07,586.61 671.47,587.95 669.86,589.29 668.26,590.62 666.66,591.96 665.06,593.29 663.47,594.61 661.87,595.93 660.28,597.25 658.70,598.57 657.11,599.88 655.53,601.19 653.95,602.50 652.38,603.80 650.81,605.10 649.24,606.39 647.67,607.68 646.11,608.97 644.55,610.25 642.99,611.53 641.44,612.81 639.89,614.08 638.34,615.35 636.80,616.61 635.26,617.87 633.72,619.13 632.19,620.38 630.66,621.63 629.13,622.87 627.61,624.11 626.09,625.35 624.58,626.58 623.06,627.81 621.56,629.03 620.05,630.25 618.55,631.46 617.05,632.67 615.56,633.88 614.07,635.08 612.59,636.28 611.11,637.47 609.63,638.66 608.16,639.84 606.69,641.02 605.22,642.19 603.76,643.36 602.30,644.52 600.85,645.68 599.40,646.83 597.96,647.98 596.52,649.13 595.08,650.27 593.65,651.40 592.23,652.53 590.80,653.65 589.39,654.77 587.97,655.89 586.57,657.00 585.16,658.10 583.76,659.20 582.37,660.29 580.98,661.38 579.59,662.46 578.21,663.54 576.84,664.61 575.47,665.67 574.10,666.73 572.74,667.79 571.39,668.84 570.04,669.88 568.69,670.92 567.35,671.95 566.02,672.97 564.69,673.99 563.36,675.01 562.04,676.02 560.73,677.02 559.42,678.02 558.11,679.01 556.82,679.99 555.52,680.97 554.24,681.94 552.95,682.91 551.68,683.87 550.41,684.82 549.14,685.77 547.88,686.71 546.63,687.65 545.38,688.58 544.14,689.50 542.90,690.42 541.67,691.33 540.45,692.23 539.23,693.13 538.02,694.02 536.81,694.90 535.61,695.78 534.53,696.56" type="driving"/>