<?xml version='1.0' encoding='UTF-8'?>
<!-- generated on 2022-09-06 03:40:32 by Eclipse SUMO netconvert Version 1.13.0
<configuration xmlns:xsi="http://www.w3.org/2001/XMLSchema-instance" xsi:noNamespaceSchemaLocation="http://sumo.dlr.de/xsd/netconvertConfiguration.xsd">

    <input>
        <opendrive-files value="map\16\51655574\51655574.xodr"/>
    </input>

    <output>
        <output-file value="C:\Users\LinGe\AppData\Local\Temp\tmpjj78qt9n\51655574.net.xml"/>
    </output>

    <processing>
        <geometry.max-grade.fix value="false"/>
    </processing>

    <tls_building>
        <tls.left-green.time value="0"/>
    </tls_building>

    <junctions>
        <rectangular-lane-cut value="true"/>
    </junctions>

    <report>
        <aggregate-warnings value="5"/>
    </report>

</configuration>
-->
<net xmlns:xsi="http://www.w3.org/2001/XMLSchema-instance" version="1.9" junctionCornerDetail="5" rectangularLaneCut="true" limitTurnSpeed="5.50" xsi:noNamespaceSchemaLocation="http://sumo.dlr.de/xsd/net_file.xsd">
  <location netOffset="301.35,137.59" convBoundary="0.00,0.00,1285.89,1339.07" origBoundary="-301.35,-137.59,984.55,1201.48" projParameter="!"/>
  <type id="bidirectional" priority="1" speed="1.39" disallow="pedestrian tram rail_urban rail rail_electric rail_fast ship" width="3.65"/>
  <type id="border" priority="0" speed="1.39" disallow="all" discard="1" width="0.10"/>
  <type id="driving" priority="1" speed="13.89" disallow="pedestrian tram rail_urban rail rail_electric rail_fast ship" width="3.65"/>
  <type id="entry" priority="1" speed="22.22" disallow="pedestrian tram rail_urban rail rail_electric rail_fast ship" width="3.65"/>
  <type id="exit" priority="1" speed="22.22" disallow="pedestrian tram rail_urban rail rail_electric rail_fast ship" width="3.65"/>
  <type id="median" priority="0" speed="1.39" disallow="all" discard="1" width="0.10"/>
  <type id="mwyEntry" priority="1" speed="22.22" allow="private emergency authority army vip passenger hov taxi bus coach delivery truck trailer motorcycle evehicle custom1 custom2" width="3.65"/>
  <type id="mwyExit" priority="1" speed="22.22" allow="private emergency authority army vip passenger hov taxi bus coach delivery truck trailer motorcycle evehicle custom1 custom2" width="3.65"/>
  <type id="none" priority="0" speed="1.39" disallow="all" discard="1" width="1.00"/>
  <type id="offRamp" priority="1" speed="22.22" allow="private emergency authority army vip passenger hov taxi bus coach delivery truck trailer motorcycle evehicle custom1 custom2" width="3.65"/>
  <type id="onRamp" priority="1" speed="22.22" allow="private emergency authority army vip passenger hov taxi bus coach delivery truck trailer motorcycle evehicle custom1 custom2" width="3.65"/>
  <type id="parking" priority="1" speed="1.39" disallow="pedestrian tram rail_urban rail rail_electric rail_fast ship" width="2.50"/>
  <type id="rail" priority="3" speed="33.33" allow="rail_urban rail rail_electric rail_fast" width="3.65"/>
  <type id="restricted" priority="0" speed="13.89" disallow="all" width="3.65"/>
  <type id="roadWorks" priority="0" speed="1.39" allow="authority" width="3.65"/>
  <type id="shoulder" priority="0" speed="1.39" disallow="all" discard="1" width="1.00"/>
  <type id="special1" priority="1" speed="22.22" allow="custom1" discard="1" width="3.65"/>
  <type id="special2" priority="1" speed="22.22" allow="custom2" discard="1" width="3.65"/>
  <type id="special3" priority="1" speed="22.22" allow="custom1 custom2" discard="1" width="3.65"/>
  <type id="stop" priority="1" speed="13.89" disallow="pedestrian tram rail_urban rail rail_electric rail_fast ship" width="3.65"/>
  <type id="tram" priority="2" speed="13.89" allow="tram" width="3.65"/>
  <edge id=":0_0" function="internal">
    <lane id=":0_0_0" index="0" disallow="pedestrian tram rail_urban rail rail_electric rail_fast ship" speed="16.67" length="7.99" width="3.75" shape="540.17,833.48 545.09,827.18,0.00"/>
  </edge>
  <edge id=":1_0" function="internal">
    <lane id=":1_0_0" index="0" disallow="pedestrian tram rail_urban rail rail_electric rail_fast ship" speed="10.39" length="13.35" width="3.75" shape="496.11,306.02,20.00 498.91,307.94,20.00 501.93,309.04,20.00 505.16,309.31,20.00 508.62,308.77,20.00"/>
  </edge>
  <edge id=":1_1" function="internal">
    <lane id=":1_1_0" index="0" disallow="pedestrian tram rail_urban rail rail_electric rail_fast ship" speed="22.22" length="14.39" width="3.75" shape="496.11,306.02,20.00 506.99,315.44,20.00"/>
    <lane id=":1_1_1" index="1" disallow="pedestrian tram rail_urban rail rail_electric rail_fast ship" speed="22.22" length="14.39" width="3.75" shape="493.66,308.86,20.00 504.54,318.27,20.00"/>
    <lane id=":1_1_2" index="2" disallow="pedestrian tram rail_urban rail rail_electric rail_fast ship" speed="22.22" length="14.39" width="3.75" shape="491.20,311.70,20.00 502.08,321.11,20.00"/>
  </edge>
  <edge id=":1.0_0" function="internal">
    <lane id=":1.0_0_0" index="0" disallow="pedestrian tram rail_urban rail rail_electric rail_fast ship" speed="22.22" length="0.30" width="3.75" shape="366.62,1091.22 366.40,1091.43"/>
    <lane id=":1.0_0_1" index="1" disallow="pedestrian tram rail_urban rail rail_electric rail_fast ship" speed="22.22" length="0.30" width="3.75" shape="364.10,1088.45 363.88,1088.65"/>
    <lane id=":1.0_0_2" index="2" disallow="pedestrian tram rail_urban rail rail_electric rail_fast ship" speed="22.22" length="0.30" width="3.75" shape="361.57,1085.68 361.36,1085.88"/>
  </edge>
  <edge id=":11.10_0" function="internal">
    <lane id=":11.10_0_0" index="0" disallow="pedestrian tram rail_urban rail rail_electric rail_fast ship" speed="22.22" length="0.30" width="3.75" shape="768.19,597.64,20.00 767.99,597.42,20.00"/>
    <lane id=":11.10_0_1" index="1" disallow="pedestrian tram rail_urban rail rail_electric rail_fast ship" speed="22.22" length="0.30" width="3.75" shape="771.01,595.17,20.00 770.81,594.95,20.00"/>
    <lane id=":11.10_0_2" index="2" disallow="pedestrian tram rail_urban rail rail_electric rail_fast ship" speed="22.22" length="0.30" width="3.75" shape="773.83,592.70,20.00 773.63,592.47,20.00"/>
  </edge>
  <edge id=":13.12_0" function="internal">
    <lane id=":13.12_0_0" index="0" disallow="pedestrian tram rail_urban rail rail_electric rail_fast ship" speed="11.11" length="0.30" width="3.75" shape="1021.02,235.47,10.05 1021.01,235.17,10.05"/>
  </edge>
  <edge id=":16.15_0" function="internal">
    <lane id=":16.15_0_0" index="0" disallow="pedestrian tram rail_urban rail rail_electric rail_fast ship" speed="8.33" length="0.29" width="3.75" shape="1287.53,183.25,10.06 1287.56,183.53,10.06"/>
  </edge>
  <edge id=":19.18_0" function="internal">
    <lane id=":19.18_0_0" index="0" disallow="pedestrian tram rail_urban rail rail_electric rail_fast ship" speed="19.44" length="0.30" width="3.75" shape="348.82,891.05,18.94 348.99,891.29,18.94"/>
  </edge>
  <edge id=":2_0" function="internal">
    <lane id=":2_0_0" index="0" disallow="pedestrian tram rail_urban rail rail_electric rail_fast ship" speed="19.44" length="7.98" width="3.75" shape="859.92,711.38,20.00 855.08,705.03,20.00"/>
  </edge>
  <edge id=":2_1" function="internal">
    <lane id=":2_1_0" index="0" disallow="pedestrian tram rail_urban rail rail_electric rail_fast ship" speed="22.22" length="8.00" width="3.75" shape="859.92,711.38,20.00 855.10,705.01,20.00"/>
    <lane id=":2_1_1" index="1" disallow="pedestrian tram rail_urban rail rail_electric rail_fast ship" speed="22.22" length="8.00" width="3.75" shape="862.91,709.12,20.00 858.08,702.74,20.00"/>
    <lane id=":2_1_2" index="2" disallow="pedestrian tram rail_urban rail rail_electric rail_fast ship" speed="22.22" length="8.00" width="3.75" shape="865.91,706.85,20.00 861.07,700.47,20.00"/>
  </edge>
  <edge id=":21.20_0" function="internal">
    <lane id=":21.20_0_0" index="0" disallow="pedestrian tram rail_urban rail rail_electric rail_fast ship" speed="16.67" length="0.30" width="3.75" shape="695.70,190.21,13.63 695.88,189.98,13.62"/>
  </edge>
  <edge id=":3_0" function="internal">
    <lane id=":3_0_0" index="0" disallow="pedestrian tram rail_urban rail rail_electric rail_fast ship" speed="10.28" length="16.52" width="3.75" shape="540.78,331.95,19.90 539.73,336.66,19.93 539.85,340.78,19.95 541.12,344.31,19.98 543.55,347.25,20.00"/>
  </edge>
  <edge id=":3_1" function="internal">
    <lane id=":3_1_0" index="0" disallow="pedestrian tram rail_urban rail rail_electric rail_fast ship" speed="22.22" length="13.99" width="3.75" shape="533.00,338.03,20.00 543.55,347.25,20.00"/>
    <lane id=":3_1_1" index="1" disallow="pedestrian tram rail_urban rail rail_electric rail_fast ship" speed="22.22" length="13.99" width="3.75" shape="530.54,340.86,20.00 541.08,350.07,20.00"/>
    <lane id=":3_1_2" index="2" disallow="pedestrian tram rail_urban rail rail_electric rail_fast ship" speed="22.22" length="13.99" width="3.75" shape="528.07,343.69,20.00 538.61,352.89,20.00"/>
  </edge>
  <edge id=":3.2_0" function="internal">
    <lane id=":3.2_0_0" index="0" disallow="pedestrian tram rail_urban rail rail_electric rail_fast ship" speed="22.22" length="0.30" width="3.75" shape="351.10,1074.59 351.31,1074.40"/>
    <lane id=":3.2_0_1" index="1" disallow="pedestrian tram rail_urban rail rail_electric rail_fast ship" speed="22.22" length="0.30" width="3.75" shape="353.62,1077.37 353.84,1077.17"/>
    <lane id=":3.2_0_2" index="2" disallow="pedestrian tram rail_urban rail rail_electric rail_fast ship" speed="22.22" length="0.30" width="3.75" shape="356.14,1080.15 356.37,1079.94"/>
  </edge>
  <edge id=":4_0" function="internal">
    <lane id=":4_0_0" index="0" disallow="pedestrian tram rail_urban rail rail_electric rail_fast ship" speed="11.11" length="2.99" width="3.75" shape="576.30,273.19,17.95 574.51,275.59,18.05"/>
  </edge>
  <edge id=":4_1" function="internal">
    <lane id=":4_1_0" index="0" disallow="pedestrian tram rail_urban rail rail_electric rail_fast ship" speed="15.28" length="3.01" width="3.75" shape="576.30,273.19,17.95 574.50,275.60,18.00"/>
  </edge>
  <edge id=":5_0" function="internal">
    <lane id=":5_0_0" index="0" disallow="pedestrian tram rail_urban rail rail_electric rail_fast ship" speed="15.28" length="8.12" width="3.75" shape="562.92,841.78,0.00 561.23,843.49,0.00 560.13,844.73,0.00 559.12,846.03,0.00 557.66,847.95"/>
  </edge>
  <edge id=":6_0" function="internal">
    <lane id=":6_0_0" index="0" disallow="pedestrian tram rail_urban rail rail_electric rail_fast ship" speed="20.83" length="48.14" width="3.75" shape="843.56,697.66,20.00 839.97,691.05,20.00 833.39,680.05,20.00 825.46,667.71,20.00 817.77,657.07,20.00"/>
  </edge>
  <edge id=":6_1" function="internal">
    <lane id=":6_1_0" index="0" disallow="pedestrian tram rail_urban rail rail_electric rail_fast ship" speed="22.22" length="47.62" width="3.75" shape="847.08,694.50,20.00 817.77,657.07,20.00"/>
    <lane id=":6_1_1" index="1" disallow="pedestrian tram rail_urban rail rail_electric rail_fast ship" speed="22.22" length="47.62" width="3.75" shape="850.05,692.22,20.00 820.69,654.73,20.00"/>
    <lane id=":6_1_2" index="2" disallow="pedestrian tram rail_urban rail rail_electric rail_fast ship" speed="22.22" length="47.62" width="3.75" shape="853.03,689.94,20.00 823.62,652.39,20.00"/>
  </edge>
  <edge id=":7_0" function="internal">
    <lane id=":7_0_0" index="0" disallow="pedestrian tram rail_urban rail rail_electric rail_fast ship" speed="8.33" length="30.49" width="3.75" shape="1108.24,406.62,6.44 1085.38,426.80,6.42"/>
  </edge>
  <edge id=":7_1" function="internal">
    <lane id=":7_1_0" index="0" disallow="pedestrian tram rail_urban rail rail_electric rail_fast ship" speed="12.50" length="30.22" width="3.75" shape="1105.10,403.95,6.46 1101.45,408.86,6.45 1095.67,415.74,6.44 1089.68,422.44,6.43 1085.38,426.80,6.42"/>
  </edge>
  <edge id=":7.6_0" function="internal">
    <lane id=":7.6_0_0" index="0" disallow="pedestrian tram rail_urban rail rail_electric rail_fast ship" speed="22.22" length="0.30" width="3.75" shape="785.11,582.43,20.00 785.31,582.66,20.00"/>
    <lane id=":7.6_0_1" index="1" disallow="pedestrian tram rail_urban rail rail_electric rail_fast ship" speed="22.22" length="0.30" width="3.75" shape="782.29,584.90,20.00 782.49,585.13,20.00"/>
    <lane id=":7.6_0_2" index="2" disallow="pedestrian tram rail_urban rail rail_electric rail_fast ship" speed="22.22" length="0.30" width="3.75" shape="779.47,587.37,20.00 779.66,587.60,20.00"/>
  </edge>
  <edge id="-0" from="5" to="1.0" priority="1" type="driving" shape="552.69,839.07 551.52,840.57 550.37,842.06 549.24,843.53 548.12,845.00 547.03,846.45 545.95,847.90 544.88,849.33 543.84,850.76 542.81,852.17 541.79,853.58 540.79,854.98 539.81,856.36 538.84,857.74 537.89,859.12 536.95,860.48 536.02,861.83 535.11,863.18 534.20,864.52 533.32,865.86 532.44,867.18 531.57,868.50 530.72,869.81 529.88,871.12 529.04,872.42 528.22,873.72 527.41,875.01 526.61,876.29 525.81,877.57 525.03,878.84 524.25,880.11 523.48,881.38 522.72,882.64 521.96,883.90 521.22,885.15 520.47,886.40 519.74,887.64 519.01,888.89 518.28,890.13 517.56,891.37 516.85,892.60 516.13,893.84 515.43,895.07 514.72,896.30 514.02,897.53 513.32,898.76 512.62,899.98 511.93,901.21 511.24,902.43 510.54,903.66 509.85,904.88 509.16,906.11 508.47,907.34 507.78,908.56 507.08,909.79 506.39,911.02 505.69,912.25 504.99,913.48 504.29,914.71 503.59,915.95 502.89,917.19 502.18,918.43 501.46,919.67 500.74,920.92 500.02,922.17 499.29,923.42 498.56,924.67 497.82,925.93 497.08,927.20 496.33,928.47 495.57,929.74 494.80,931.02 494.03,932.30 493.25,933.59 492.46,934.89 491.66,936.19 490.86,937.49 490.04,938.80 489.21,940.12 488.37,941.45 487.53,942.78 486.67,944.12 485.80,945.47 484.91,946.82 484.02,948.18 483.11,949.55 482.19,950.93 481.26,952.32 480.31,953.71 479.35,955.12 478.38,956.53 477.39,957.96 476.38,959.39 475.36,960.83 474.32,962.29 473.27,963.75 472.20,965.22 471.11,966.71 470.00,968.21 468.88,969.71 467.74,971.23 466.58,972.76 465.40,974.31 464.20,975.86 462.99,977.43 461.75,979.01 460.49,980.60 459.21,982.21 457.91,983.83 456.59,985.46 455.24,987.11 453.87,988.77 452.48,990.44 451.07,992.13 449.63,993.84 448.17,995.56 446.69,997.29 445.18,999.04 443.65,1000.81 442.09,1002.59 440.50,1004.39 438.89,1006.20 437.25,1008.04 435.58,1009.88 433.89,1011.75 432.17,1013.63 430.42,1015.53 428.64,1017.45 426.84,1019.38 425.00,1021.34 423.14,1023.31 421.24,1025.30 419.32,1027.31 417.36,1029.34 415.37,1031.39 413.35,1033.46 411.30,1035.55 409.22,1037.65 407.11,1039.78 404.96,1041.93 402.77,1044.10 400.56,1046.29 398.31,1048.51 396.02,1050.74 393.71,1052.99 391.35,1055.27 388.96,1057.57 386.53,1059.89 384.07,1062.24 381.57,1064.60 379.03,1066.99 376.46,1069.41 373.85,1071.84 371.20,1074.31 368.51,1076.79 365.78,1079.30 363.01,1081.83 360.20,1084.39">
    <lane id="-0_0" index="0" disallow="pedestrian tram rail_urban rail rail_electric rail_fast ship" speed="22.22" length="310.43" width="3.75" shape="557.66,847.95 556.69,849.23 555.60,850.66 554.52,852.08 553.47,853.50 552.43,854.90 551.41,856.29 550.40,857.67 549.41,859.05 548.43,860.41 547.47,861.77 546.53,863.12 545.59,864.46 544.67,865.79 543.77,867.11 542.88,868.43 541.99,869.74 541.13,871.04 540.27,872.34 539.42,873.63 538.59,874.91 537.76,876.19 536.95,877.46 536.15,878.73 535.35,879.99 534.56,881.25 533.78,882.50 533.01,883.75 532.25,885.00 531.50,886.24 530.75,887.48 530.01,888.71 529.27,889.94 528.54,891.17 527.82,892.40 527.10,893.63 526.38,894.85 525.67,896.07 524.96,897.29 524.26,898.51 523.56,899.73 522.86,900.95 522.16,902.17 521.47,903.39 520.78,904.61 520.09,905.83 519.40,907.05 518.71,908.27 518.02,909.49 517.32,910.72 516.63,911.94 515.94,913.17 515.25,914.40 514.55,915.63 513.85,916.87 513.15,918.10 512.44,919.35 511.74,920.59 511.03,921.84 510.31,923.09 509.59,924.34 508.86,925.60 508.13,926.87 507.40,928.13 506.66,929.41 505.91,930.68 505.15,931.97 504.39,933.25 503.62,934.55 502.84,935.85 502.06,937.15 501.26,938.46 500.46,939.78 499.64,941.10 498.82,942.43 497.99,943.77 497.15,945.12 496.29,946.47 495.43,947.83 494.55,949.19 493.66,950.57 492.76,951.95 491.85,953.34 490.92,954.74 489.98,956.15 489.03,957.57 488.06,958.99 487.08,960.43 486.08,961.87 485.07,963.33 484.04,964.79 483.00,966.26 481.94,967.75 480.86,969.24 479.77,970.75 478.66,972.26 477.53,973.79 476.39,975.33 475.22,976.88 474.04,978.44 472.84,980.01 471.62,981.60 470.38,983.20 469.12,984.81 467.83,986.43 466.53,988.06 465.21,989.71 463.86,991.37 462.49,993.05 461.10,994.74 459.69,996.44 458.25,998.16 456.79,999.89 455.31,1001.64 453.80,1003.40 452.27,1005.18 450.71,1006.97 449.13,1008.78 447.52,1010.60 445.88,1012.44 444.22,1014.30 442.54,1016.17 440.82,1018.06 439.08,1019.97 437.31,1021.89 435.51,1023.83 433.68,1025.79 431.82,1027.77 429.94,1029.76 428.02,1031.78 426.08,1033.81 424.10,1035.86 422.09,1037.93 420.05,1040.02 417.98,1042.13 415.88,1044.25 413.74,1046.40 411.58,1048.57 409.38,1050.76 407.14,1052.97 404.87,1055.20 402.57,1057.45 400.23,1059.72 397.86,1062.02 395.45,1064.34 393.01,1066.67 390.53,1069.04 388.01,1071.42 385.46,1073.82 382.86,1076.25 380.23,1078.71 377.57,1081.18 374.86,1083.68 372.12,1086.21 369.33,1088.76 366.62,1091.22" type="driving"/>
    <lane id="-0_1" index="1" disallow="pedestrian tram rail_urban rail rail_electric rail_fast ship" speed="22.22" length="310.43" width="3.75" shape="554.69,845.67 553.71,846.95 552.61,848.40 551.52,849.83 550.46,851.26 549.41,852.67 548.38,854.08 547.36,855.47 546.36,856.86 545.38,858.24 544.41,859.61 543.45,860.97 542.51,862.32 541.58,863.66 540.67,865.00 539.77,866.33 538.88,867.65 538.00,868.97 537.14,870.27 536.28,871.58 535.44,872.87 534.61,874.16 533.79,875.45 532.98,876.72 532.17,878.00 531.38,879.27 530.60,880.53 529.82,881.79 529.05,883.04 528.29,884.29 527.54,885.54 526.79,886.78 526.05,888.03 525.31,889.26 524.58,890.50 523.86,891.73 523.14,892.96 522.43,894.19 521.72,895.42 521.01,896.64 520.31,897.87 519.61,899.09 518.91,900.31 518.21,901.54 517.52,902.76 516.82,903.98 516.13,905.20 515.44,906.43 514.75,907.65 514.06,908.87 513.37,910.10 512.67,911.33 511.98,912.56 511.28,913.79 510.59,915.02 509.89,916.25 509.18,917.49 508.48,918.73 507.77,919.98 507.06,921.22 506.34,922.47 505.62,923.73 504.89,924.99 504.16,926.25 503.42,927.51 502.67,928.78 501.92,930.06 501.16,931.34 500.40,932.62 499.63,933.92 498.85,935.21 498.06,936.51 497.26,937.82 496.45,939.14 495.63,940.46 494.81,941.78 493.97,943.12 493.12,944.46 492.27,945.81 491.40,947.16 490.52,948.53 489.62,949.90 488.72,951.28 487.80,952.67 486.87,954.06 485.92,955.47 484.96,956.88 483.99,958.30 483.00,959.74 482.00,961.18 480.98,962.63 479.94,964.09 478.89,965.56 477.83,967.05 476.74,968.54 475.64,970.04 474.52,971.56 473.39,973.08 472.23,974.62 471.06,976.17 469.86,977.73 468.65,979.30 467.42,980.89 466.17,982.49 464.90,984.10 463.60,985.72 462.29,987.36 460.95,989.01 459.59,990.67 458.21,992.35 456.81,994.04 455.38,995.75 453.93,997.47 452.45,999.21 450.96,1000.96 449.43,1002.73 447.88,1004.51 446.31,1006.30 444.71,1008.12 443.09,1009.95 441.43,1011.79 439.75,1013.66 438.05,1015.54 436.31,1017.43 434.55,1019.35 432.76,1021.28 430.94,1023.23 429.10,1025.20 427.22,1027.18 425.31,1029.19 423.37,1031.21 421.40,1033.25 419.40,1035.31 417.37,1037.39 415.31,1039.49 413.22,1041.61 411.09,1043.75 408.93,1045.92 406.74,1048.10 404.51,1050.30 402.25,1052.52 399.95,1054.77 397.62,1057.03 395.26,1059.32 392.85,1061.63 390.42,1063.96 387.94,1066.32 385.43,1068.69 382.89,1071.09 380.30,1073.52 377.68,1075.96 375.02,1078.43 372.32,1080.93 369.58,1083.44 366.80,1085.99 364.10,1088.45" type="driving"/>
    <lane id="-0_2" index="2" disallow="pedestrian tram rail_urban rail rail_electric rail_fast ship" speed="22.22" length="310.43" width="3.75" shape="551.71,843.39 550.73,844.67 549.62,846.13 548.52,847.58 547.45,849.02 546.39,850.45 545.35,851.86 544.33,853.27 543.32,854.67 542.32,856.06 541.34,857.45 540.38,858.82 539.43,860.18 538.49,861.54 537.57,862.89 536.66,864.23 535.76,865.57 534.88,866.89 534.00,868.21 533.14,869.53 532.29,870.83 531.45,872.13 530.63,873.43 529.81,874.72 529.00,876.00 528.20,877.28 527.41,878.56 526.62,879.82 525.85,881.09 525.08,882.35 524.32,883.61 523.57,884.86 522.83,886.11 522.09,887.35 521.35,888.60 520.63,889.84 519.90,891.07 519.18,892.31 518.47,893.54 517.76,894.77 517.05,896.00 516.35,897.23 515.65,898.46 514.95,899.68 514.26,900.91 513.56,902.13 512.87,903.36 512.18,904.58 511.48,905.81 510.79,907.03 510.10,908.26 509.41,909.48 508.72,910.71 508.02,911.94 507.32,913.17 506.63,914.40 505.92,915.64 505.22,916.88 504.51,918.12 503.80,919.36 503.09,920.60 502.37,921.85 501.64,923.11 500.92,924.36 500.18,925.62 499.44,926.88 498.69,928.15 497.94,929.43 497.18,930.70 496.41,931.99 495.64,933.27 494.85,934.57 494.06,935.86 493.26,937.17 492.45,938.48 491.63,939.80 490.80,941.12 489.96,942.45 489.11,943.79 488.24,945.13 487.37,946.49 486.48,947.85 485.59,949.21 484.67,950.59 483.75,951.98 482.81,953.37 481.86,954.77 480.90,956.18 479.92,957.60 478.92,959.03 477.91,960.47 476.89,961.92 475.84,963.38 474.79,964.85 473.71,966.33 472.62,967.82 471.51,969.32 470.38,970.84 469.24,972.36 468.07,973.90 466.89,975.45 465.69,977.01 464.46,978.58 463.22,980.17 461.96,981.77 460.67,983.38 459.37,985.00 458.04,986.64 456.69,988.30 455.32,989.96 453.93,991.64 452.51,993.34 451.07,995.05 449.60,996.77 448.11,998.52 446.60,1000.27 445.06,1002.04 443.49,1003.83 441.90,1005.63 440.29,1007.45 438.64,1009.29 436.97,1011.14 435.28,1013.01 433.55,1014.90 431.80,1016.80 430.02,1018.73 428.21,1020.67 426.37,1022.62 424.50,1024.60 422.60,1026.60 420.67,1028.61 418.71,1030.65 416.72,1032.70 414.69,1034.77 412.64,1036.86 410.55,1038.97 408.43,1041.11 406.28,1043.26 404.09,1045.43 401.88,1047.63 399.62,1049.84 397.33,1052.08 395.01,1054.34 392.65,1056.62 390.26,1058.92 387.83,1061.25 385.36,1063.60 382.86,1065.97 380.32,1068.36 377.74,1070.78 375.13,1073.22 372.47,1075.68 369.78,1078.17 367.05,1080.68 364.28,1083.22 361.57,1085.68" type="driving"/>
  </edge>
  <edge id="-1" from="1.0" to="1.end" priority="1" type="driving" shape="360.20,1084.39 358.19,1086.22 356.17,1088.04 354.16,1089.85 352.15,1091.66 350.14,1093.45 348.14,1095.24 346.14,1097.02 344.14,1098.78 342.14,1100.54 340.15,1102.29 338.16,1104.04 336.17,1105.77 334.18,1107.50 332.20,1109.21 330.22,1110.92 328.24,1112.62 326.27,1114.31 324.29,1116.00 322.32,1117.67 320.36,1119.34 318.39,1121.00 316.43,1122.65 314.47,1124.29 312.52,1125.92 310.56,1127.55 308.61,1129.17 306.67,1130.78 304.72,1132.38 302.78,1133.98 300.84,1135.56 298.91,1137.14 296.97,1138.71 295.04,1140.27 293.12,1141.83 291.19,1143.38 289.27,1144.92 287.35,1146.45 285.44,1147.98 283.53,1149.49 281.62,1151.00 279.71,1152.51 277.81,1154.00 275.91,1155.49 274.01,1156.97 272.12,1158.44 270.23,1159.91 268.34,1161.37 266.46,1162.82 264.58,1164.26 262.70,1165.70 260.83,1167.13 258.96,1168.55 257.09,1169.97 255.22,1171.38 253.36,1172.78 251.51,1174.18 249.65,1175.57 247.80,1176.95 245.95,1178.32 244.11,1179.69 242.27,1181.06 240.43,1182.41 238.59,1183.76 236.76,1185.10 234.94,1186.44 233.11,1187.77 231.29,1189.09 229.47,1190.41 227.66,1191.72 225.85,1193.02 224.04,1194.32 222.24,1195.61 220.44,1196.89 218.65,1198.17 216.85,1199.44 215.06,1200.71 213.28,1201.97 211.50,1203.23 209.72,1204.47 207.95,1205.72 206.17,1206.95 204.41,1208.18 202.64,1209.41 200.89,1210.63 199.13,1211.84 197.38,1213.05 195.63,1214.25 193.88,1215.45 192.14,1216.64 190.41,1217.82 188.67,1219.00 186.95,1220.18 185.22,1221.35 183.50,1222.51 181.78,1223.67 180.07,1224.82 178.36,1225.97 176.65,1227.11 174.95,1228.25 173.25,1229.38 171.56,1230.51 169.87,1231.63 168.18,1232.75 166.50,1233.86 164.82,1234.97 163.15,1236.07 161.48,1237.16 159.81,1238.26 158.15,1239.34 156.49,1240.43 154.84,1241.50 153.19,1242.58 151.55,1243.64 149.91,1244.71 148.27,1245.77 146.64,1246.82 145.01,1247.87 143.38,1248.92 141.76,1249.96 140.15,1251.00 138.54,1252.03 136.93,1253.06 135.33,1254.08 133.73,1255.10 132.14,1256.11 130.55,1257.13 128.96,1258.13 127.38,1259.14 125.80,1260.13 124.23,1261.13 122.66,1262.12 121.10,1263.11 119.54,1264.09 117.99,1265.07 116.44,1266.04 114.89,1267.02 113.35,1267.98 111.81,1268.95 110.28,1269.91 108.76,1270.87 107.23,1271.82 105.71,1272.77 104.20,1273.71 102.69,1274.66 101.19,1275.60 99.69,1276.53 98.19,1277.47 96.70,1278.39 95.22,1279.32 93.74,1280.24 92.26,1281.16 90.79,1282.08 89.32,1282.99 87.86,1283.90 86.40,1284.81 84.95,1285.71 83.51,1286.62 82.06,1287.51 80.63,1288.41 79.19,1289.30 77.76,1290.19 76.34,1291.08 74.92,1291.96 73.51,1292.84 72.10,1293.72 70.70,1294.60 69.30,1295.47 67.91,1296.34 66.52,1297.21 65.13,1298.08 63.76,1298.94 62.38,1299.80 61.01,1300.66 59.65,1301.52 58.29,1302.37 56.94,1303.22 55.59,1304.07 54.25,1304.92 52.91,1305.77 51.58,1306.61 50.25,1307.45 48.93,1308.29 47.61,1309.13 46.30,1309.96 45.00,1310.80 43.70,1311.63 42.40,1312.46 41.11,1313.29 39.82,1314.11 38.54,1314.94 37.27,1315.76 36.00,1316.58 34.74,1317.40 33.48,1318.22 32.22,1319.04 30.98,1319.85 29.73,1320.66 28.50,1321.48 27.27,1322.29 26.04,1323.10 24.82,1323.91 23.60,1324.71 22.39,1325.52 21.19,1326.32 19.99,1327.13 18.80,1327.93 17.61,1328.73 16.43,1329.53 15.25,1330.33 14.08,1331.13 12.92,1331.93 11.76,1332.73 10.61,1333.52 9.46,1334.32 8.32,1335.11 7.18,1335.91 6.05,1336.70 4.92,1337.49 3.80,1338.28 2.69,1339.07">
    <lane id="-1_0" index="0" disallow="pedestrian tram rail_urban rail rail_electric rail_fast ship" speed="22.22" length="440.15" width="3.75" shape="366.40,1091.43 364.48,1093.17 362.45,1095.00 360.43,1096.83 358.41,1098.64 356.39,1100.45 354.37,1102.24 352.36,1104.03 350.34,1105.81 348.34,1107.58 346.33,1109.34 344.33,1111.10 342.32,1112.84 340.33,1114.58 338.33,1116.31 336.34,1118.03 334.35,1119.74 332.36,1121.44 330.37,1123.13 328.39,1124.82 326.41,1126.50 324.43,1128.17 322.46,1129.83 320.49,1131.48 318.52,1133.12 316.56,1134.76 314.59,1136.39 312.63,1138.01 310.68,1139.62 308.72,1141.23 306.77,1142.82 304.82,1144.41 302.88,1145.99 300.94,1147.56 299.00,1149.13 297.06,1150.69 295.13,1152.24 293.20,1153.78 291.27,1155.31 289.35,1156.84 287.43,1158.36 285.51,1159.87 283.60,1161.38 281.69,1162.87 279.78,1164.36 277.87,1165.85 275.97,1167.32 274.07,1168.79 272.18,1170.25 270.28,1171.70 268.40,1173.15 266.51,1174.59 264.63,1176.02 262.75,1177.45 260.87,1178.86 259.00,1180.27 257.13,1181.68 255.26,1183.08 253.40,1184.47 251.54,1185.85 249.69,1187.23 247.84,1188.60 245.99,1189.96 244.14,1191.32 242.30,1192.67 240.46,1194.01 238.63,1195.35 236.80,1196.68 234.97,1198.00 233.14,1199.32 231.32,1200.63 229.51,1201.94 227.69,1203.23 225.88,1204.53 224.08,1205.81 222.28,1207.09 220.48,1208.37 218.68,1209.63 216.89,1210.89 215.10,1212.15 213.32,1213.40 211.54,1214.64 209.76,1215.88 207.99,1217.11 206.22,1218.34 204.46,1219.56 202.69,1220.77 200.94,1221.98 199.18,1223.18 197.43,1224.38 195.69,1225.57 193.95,1226.76 192.21,1227.94 190.47,1229.11 188.74,1230.28 187.02,1231.45 185.30,1232.60 183.58,1233.76 181.86,1234.90 180.15,1236.05 178.45,1237.18 176.75,1238.32 175.05,1239.44 173.36,1240.57 171.67,1241.68 169.98,1242.79 168.30,1243.90 166.62,1245.00 164.95,1246.10 163.28,1247.19 161.62,1248.28 159.96,1249.36 158.30,1250.44 156.65,1251.51 155.00,1252.58 153.36,1253.64 151.72,1254.70 150.09,1255.75 148.46,1256.80 146.83,1257.85 145.21,1258.89 143.59,1259.92 141.98,1260.95 140.37,1261.98 138.77,1263.00 137.17,1264.02 135.57,1265.04 133.98,1266.05 132.40,1267.05 130.82,1268.05 129.24,1269.05 127.67,1270.05 126.10,1271.04 124.54,1272.02 122.98,1273.00 121.43,1273.98 119.88,1274.95 118.34,1275.92 116.80,1276.89 115.26,1277.85 113.73,1278.81 112.21,1279.77 110.69,1280.72 109.17,1281.66 107.66,1282.61 106.15,1283.55 104.65,1284.49 103.16,1285.42 101.66,1286.35 100.18,1287.28 98.70,1288.20 97.22,1289.12 95.75,1290.04 94.28,1290.95 92.82,1291.86 91.36,1292.77 89.91,1293.67 88.46,1294.57 87.02,1295.47 85.58,1296.37 84.15,1297.26 82.72,1298.15 81.30,1299.03 79.88,1299.92 78.47,1300.80 77.07,1301.67 75.66,1302.55 74.27,1303.42 72.88,1304.29 71.49,1305.16 70.11,1306.02 68.74,1306.88 67.37,1307.74 66.00,1308.60 64.64,1309.45 63.29,1310.31 61.94,1311.15 60.59,1312.00 59.26,1312.85 57.92,1313.69 56.60,1314.53 55.28,1315.37 53.96,1316.20 52.65,1317.04 51.34,1317.87 50.04,1318.70 48.75,1319.52 47.46,1320.35 46.18,1321.17 44.90,1322.00 43.62,1322.81 42.36,1323.63 41.10,1324.45 39.84,1325.26 38.59,1326.08 37.35,1326.89 36.11,1327.70 34.88,1328.50 33.65,1329.31 32.43,1330.11 31.21,1330.92 30.00,1331.72 28.80,1332.52 27.60,1333.32 26.41,1334.11 25.22,1334.91 24.04,1335.70 22.86,1336.50 21.69,1337.29 20.53,1338.08 19.37,1338.87 18.22,1339.66 17.08,1340.45 15.94,1341.23 14.80,1342.02 13.68,1342.80 12.56,1343.59 11.44,1344.37 10.33,1345.15 9.23,1345.93 8.12,1346.72" type="driving"/>