<?xml version='1.0' encoding='UTF-8'?>
<!-- generated on 2022-09-06 04:03:24 by Eclipse SUMO netconvert Version 1.13.0
<configuration xmlns:xsi="http://www.w3.org/2001/XMLSchema-instance" xsi:noNamespaceSchemaLocation="http://sumo.dlr.de/xsd/netconvertConfiguration.xsd">

    <input>
        <opendrive-files value="map\1\62442314\62442314.xodr"/>
    </input>

    <output>
        <output-file value="C:\Users\LinGe\AppData\Local\Temp\tmp54c78xae\62442314.net.xml"/>
    </output>

    <processing>
        <geometry.max-grade.fix value="false"/>
    </processing>

    <tls_building>
        <tls.left-green.time value="0"/>
    </tls_building>

    <junctions>
        <rectangular-lane-cut value="true"/>
    </junctions>

    <report>
        <aggregate-warnings value="5"/>
    </report>

</configuration>
-->
<net xmlns:xsi="http://www.w3.org/2001/XMLSchema-instance" version="1.9" junctionCornerDetail="5" rectangularLaneCut="true" limitTurnSpeed="5.50" xsi:noNamespaceSchemaLocation="http://sumo.dlr.de/xsd/net_file.xsd">
  <location netOffset="1.56,164.04" convBoundary="0.00,0.00,1102.73,1365.30" origBoundary="-1.56,-164.04,1101.18,1201.26" projParameter="!"/>
  <type id="bidirectional" priority="1" speed="1.39" disallow="pedestrian tram rail_urban rail rail_electric rail_fast ship" width="3.65"/>
  <type id="border" priority="0" speed="1.39" disallow="all" discard="1" width="0.10"/>
  <type id="driving" priority="1" speed="13.89" disallow="pedestrian tram rail_urban rail rail_electric rail_fast ship" width="3.65"/>
  <type id="entry" priority="1" speed="22.22" disallow="pedestrian tram rail_urban rail rail_electric rail_fast ship" width="3.65"/>
  <type id="exit" priority="1" speed="22.22" disallow="pedestrian tram rail_urban rail rail_electric rail_fast ship" width="3.65"/>
  <type id="median" priority="0" speed="1.39" disallow="all" discard="1" width="0.10"/>
  <type id="mwyEntry" priority="1" speed="22.22" allow="private emergency authority army vip passenger hov taxi bus coach delivery truck trailer motorcycle evehicle custom1 custom2" width="3.65"/>
  <type id="mwyExit" priority="1" speed="22.22" allow="private emergency authority army vip passenger hov taxi bus coach delivery truck trailer motorcycle evehicle custom1 custom2" width="3.65"/>
  <type id="none" priority="0" speed="1.39" disallow="all" discard="1" width="1.00"/>
  <type id="offRamp" priority="1" speed="22.22" allow="private emergency authority army vip passenger hov taxi bus coach delivery truck trailer motorcycle evehicle custom1 custom2" width="3.65"/>
  <type id="onRamp" priority="1" speed="22.22" allow="private emergency authority army vip passenger hov taxi bus coach delivery truck trailer motorcycle evehicle custom1 custom2" width="3.65"/>
  <type id="parking" priority="1" speed="1.39" disallow="pedestrian tram rail_urban rail rail_electric rail_fast ship" width="2.50"/>
  <type id="rail" priority="3" speed="33.33" allow="rail_urban rail rail_electric rail_fast" width="3.65"/>
  <type id="restricted" priority="0" speed="13.89" disallow="all" width="3.65"/>
  <type id="roadWorks" priority="0" speed="1.39" allow="authority" width="3.65"/>
  <type id="shoulder" priority="0" speed="1.39" disallow="all" discard="1" width="1.00"/>
  <type id="special1" priority="1" speed="22.22" allow="custom1" discard="1" width="3.65"/>
  <type id="special2" priority="1" speed="22.22" allow="custom2" discard="1" width="3.65"/>
  <type id="special3" priority="1" speed="22.22" allow="custom1 custom2" discard="1" width="3.65"/>
  <type id="stop" priority="1" speed="13.89" disallow="pedestrian tram rail_urban rail rail_electric rail_fast ship" width="3.65"/>
  <type id="tram" priority="2" speed="13.89" allow="tram" width="3.65"/>
  <edge id=":0_0" function="internal">
    <lane id=":0_0_0" index="0" disallow="pedestrian tram rail_urban rail rail_electric rail_fast ship" speed="20.83" length="32.66" width="3.75" shape="996.02,335.89 986.92,341.51,0.02 979.45,347.11,0.04 973.79,352.02,0.05 970.12,355.61,0.06"/>
  </edge>
  <edge id=":0_1" function="internal">
    <lane id=":0_1_0" index="0" disallow="pedestrian tram rail_urban rail rail_electric rail_fast ship" speed="22.22" length="32.91" width="3.75" shape="996.02,335.89 967.19,351.74"/>
    <lane id=":0_1_1" index="1" disallow="pedestrian tram rail_urban rail rail_electric rail_fast ship" speed="22.22" length="32.91" width="3.75" shape="994.22,332.60 965.38,348.45"/>
    <lane id=":0_1_2" index="2" disallow="pedestrian tram rail_urban rail rail_electric rail_fast ship" speed="22.22" length="32.91" width="3.75" shape="992.42,329.32 963.57,345.17"/>
  </edge>
  <edge id=":1_0" function="internal">
    <lane id=":1_0_0" index="0" disallow="pedestrian tram rail_urban rail rail_electric rail_fast ship" speed="15.28" length="29.41" width="3.75" shape="505.79,647.49 498.29,654.16 492.72,660.25 488.95,665.50 486.83,669.65"/>
  </edge>
  <edge id=":1_1" function="internal">
    <lane id=":1_1_0" index="0" disallow="pedestrian tram rail_urban rail rail_electric rail_fast ship" speed="22.22" length="29.91" width="3.75" shape="505.79,647.49 482.59,666.33"/>
    <lane id=":1_1_1" index="1" disallow="pedestrian tram rail_urban rail rail_electric rail_fast ship" speed="22.22" length="29.91" width="3.75" shape="503.44,644.57 480.21,663.42"/>
    <lane id=":1_1_2" index="2" disallow="pedestrian tram rail_urban rail rail_electric rail_fast ship" speed="22.22" length="29.91" width="3.75" shape="501.08,641.65 477.84,660.52"/>
  </edge>
  <edge id=":10_0" function="internal">
    <lane id=":10_0_0" index="0" disallow="pedestrian tram rail_urban rail rail_electric rail_fast ship" speed="18.06" length="61.78" width="3.75" shape="953.48,328.40,0.00 962.36,324.62,0.00 978.34,317.51,0.00 995.91,309.38,0.00 1009.57,302.55"/>
  </edge>
  <edge id=":10_1" function="internal">
    <lane id=":10_1_0" index="0" disallow="pedestrian tram rail_urban rail rail_electric rail_fast ship" speed="22.22" length="61.40" width="3.75" shape="955.75,332.10 1009.57,302.55"/>
    <lane id=":10_1_1" index="1" disallow="pedestrian tram rail_urban rail rail_electric rail_fast ship" speed="22.22" length="61.40" width="3.75" shape="957.55,335.39 1011.37,305.84"/>
    <lane id=":10_1_2" index="2" disallow="pedestrian tram rail_urban rail rail_electric rail_fast ship" speed="22.22" length="61.40" width="3.75" shape="959.36,338.67 1013.18,309.12"/>
  </edge>
  <edge id=":11_0" function="internal">
    <lane id=":11_0_0" index="0" disallow="pedestrian tram rail_urban rail rail_electric rail_fast ship" speed="9.72" length="42.32" width="3.75" shape="425.27,809.37,5.18 417.37,810.71,5.17 404.49,813.30,5.16 391.64,816.06,5.14 383.84,817.92,5.13"/>
  </edge>
  <edge id=":11_1" function="internal">
    <lane id=":11_1_0" index="0" disallow="pedestrian tram rail_urban rail rail_electric rail_fast ship" speed="9.72" length="41.82" width="3.75" shape="423.76,805.47,5.20 383.84,817.92,5.13"/>
  </edge>
  <edge id=":12_0" function="internal">
    <lane id=":12_0_0" index="0" disallow="pedestrian tram rail_urban rail rail_electric rail_fast ship" speed="16.67" length="133.29" width="3.75" shape="817.76,404.99,0.00 935.81,343.10"/>
  </edge>
  <edge id=":12_1" function="internal">
    <lane id=":12_1_0" index="0" disallow="pedestrian tram rail_urban rail rail_electric rail_fast ship" speed="22.22" length="133.07" width="3.75" shape="819.80,408.44 935.81,343.10"/>
    <lane id=":12_1_1" index="1" disallow="pedestrian tram rail_urban rail rail_electric rail_fast ship" speed="22.22" length="133.07" width="3.75" shape="821.67,411.69 937.62,346.38"/>
    <lane id=":12_1_2" index="2" disallow="pedestrian tram rail_urban rail rail_electric rail_fast ship" speed="22.22" length="133.07" width="3.75" shape="823.55,414.94 939.44,349.67"/>
  </edge>
  <edge id=":13_0" function="internal">
    <lane id=":13_0_0" index="0" disallow="pedestrian tram rail_urban rail rail_electric rail_fast ship" speed="15.28" length="31.30" width="3.75" shape="587.87,730.98,20.00 586.57,726.26,20.00 583.70,719.85,20.00 579.13,712.23,20.00 572.71,703.93,20.00"/>
  </edge>
  <edge id=":13_1" function="internal">
    <lane id=":13_1_0" index="0" disallow="pedestrian tram rail_urban rail rail_electric rail_fast ship" speed="22.22" length="30.05" width="3.75" shape="592.35,726.64,20.00 572.71,703.93,20.00"/>
    <lane id=":13_1_1" index="1" disallow="pedestrian tram rail_urban rail rail_electric rail_fast ship" speed="22.22" length="30.05" width="3.75" shape="595.19,724.20,20.00 575.54,701.47,20.00"/>
    <lane id=":13_1_2" index="2" disallow="pedestrian tram rail_urban rail rail_electric rail_fast ship" speed="22.22" length="30.05" width="3.75" shape="598.04,721.75,20.00 578.37,699.00,20.00"/>
  </edge>
  <edge id=":13.12_0" function="internal">
    <lane id=":13.12_0_0" index="0" disallow="pedestrian tram rail_urban rail rail_electric rail_fast ship" speed="22.22" length="0.30" width="3.75" shape="650.16,760.26,20.00 650.35,760.49,20.00"/>
    <lane id=":13.12_0_1" index="1" disallow="pedestrian tram rail_urban rail rail_electric rail_fast ship" speed="22.22" length="0.30" width="3.75" shape="647.25,762.61,20.00 647.43,762.85,20.00"/>
    <lane id=":13.12_0_2" index="2" disallow="pedestrian tram rail_urban rail rail_electric rail_fast ship" speed="22.22" length="0.30" width="3.75" shape="644.33,764.97,20.00 644.52,765.20,20.00"/>
  </edge>
  <edge id=":18.17_0" function="internal">
    <lane id=":18.17_0_0" index="0" disallow="pedestrian tram rail_urban rail rail_electric rail_fast ship" speed="22.22" length="0.30" width="3.75" shape="632.65,774.78,20.00 632.47,774.55,20.00"/>
    <lane id=":18.17_0_1" index="1" disallow="pedestrian tram rail_urban rail rail_electric rail_fast ship" speed="22.22" length="0.30" width="3.75" shape="635.57,772.43,20.00 635.38,772.20,20.00"/>
    <lane id=":18.17_0_2" index="2" disallow="pedestrian tram rail_urban rail rail_electric rail_fast ship" speed="22.22" length="0.30" width="3.75" shape="638.49,770.07,20.00 638.30,769.84,20.00"/>
  </edge>
  <edge id=":2_0" function="internal">
    <lane id=":2_0_0" index="0" disallow="pedestrian tram rail_urban rail rail_electric rail_fast ship" speed="18.06" length="84.16" width="3.75" shape="77.26,983.35 91.01,970.57 110.51,951.81 128.52,934.22 137.84,924.94"/>
  </edge>
  <edge id=":2_1" function="internal">
    <lane id=":2_1_0" index="0" disallow="pedestrian tram rail_urban rail rail_electric rail_fast ship" speed="22.22" length="84.26" width="3.75" shape="77.26,983.35 140.72,927.91"/>
    <lane id=":2_1_1" index="1" disallow="pedestrian tram rail_urban rail rail_electric rail_fast ship" speed="22.22" length="84.26" width="3.75" shape="79.73,986.18 143.19,930.74"/>
    <lane id=":2_1_2" index="2" disallow="pedestrian tram rail_urban rail rail_electric rail_fast ship" speed="22.22" length="84.26" width="3.75" shape="82.20,989.00 145.65,933.56"/>
  </edge>
  <edge id=":2.1_0" function="internal">
    <lane id=":2.1_0_0" index="0" disallow="pedestrian tram rail_urban rail rail_electric rail_fast ship" speed="22.22" length="0.30" width="3.75" shape="601.12,573.66 600.88,573.84"/>
    <lane id=":2.1_0_1" index="1" disallow="pedestrian tram rail_urban rail rail_electric rail_fast ship" speed="22.22" length="0.30" width="3.75" shape="598.91,570.63 598.67,570.80"/>
    <lane id=":2.1_0_2" index="2" disallow="pedestrian tram rail_urban rail rail_electric rail_fast ship" speed="22.22" length="0.30" width="3.75" shape="596.71,567.59 596.46,567.77"/>
  </edge>
  <edge id=":22.21_0" function="internal">
    <lane id=":22.21_0_0" index="0" disallow="pedestrian tram rail_urban rail rail_electric rail_fast ship" speed="19.44" length="0.30" width="3.75" shape="855.09,717.50,8.58 855.08,717.80,8.59"/>
  </edge>
  <edge id=":24.23_0" function="internal">
    <lane id=":24.23_0_0" index="0" disallow="pedestrian tram rail_urban rail rail_electric rail_fast ship" speed="9.72" length="0.29" width="3.75" shape="455.92,811.07,7.56 455.64,811.00,7.55"/>
  </edge>
  <edge id=":27.26_0" function="internal">
    <lane id=":27.26_0_0" index="0" disallow="pedestrian tram rail_urban rail rail_electric rail_fast ship" speed="13.89" length="0.30" width="3.75" shape="286.91,678.38,9.07 286.94,678.08,9.08"/>
  </edge>
  <edge id=":29.28_0" function="internal">
    <lane id=":29.28_0_0" index="0" disallow="pedestrian tram rail_urban rail rail_electric rail_fast ship" speed="13.89" length="0.30" width="3.75" shape="680.99,371.86,6.92 681.29,371.91,6.91"/>
  </edge>
  <edge id=":3_0" function="internal">
    <lane id=":3_0_0" index="0" disallow="pedestrian tram rail_urban rail rail_electric rail_fast ship" speed="18.06" length="73.89" width="3.75" shape="95.82,148.96,20.00 107.93,161.13,20.00 124.89,177.43,20.00 140.65,192.28,20.00 149.17,200.07,20.00"/>
  </edge>
  <edge id=":3_1" function="internal">
    <lane id=":3_1_0" index="0" disallow="pedestrian tram rail_urban rail rail_electric rail_fast ship" speed="22.22" length="74.03" width="3.75" shape="95.82,148.96,20.00 146.26,203.14,20.00"/>
    <lane id=":3_1_1" index="1" disallow="pedestrian tram rail_urban rail rail_electric rail_fast ship" speed="22.22" length="74.03" width="3.75" shape="93.07,151.52,20.00 143.52,205.70,20.00"/>
    <lane id=":3_1_2" index="2" disallow="pedestrian tram rail_urban rail rail_electric rail_fast ship" speed="22.22" length="74.03" width="3.75" shape="90.33,154.07,20.00 140.77,208.25,20.00"/>
  </edge>
  <edge id=":31.30_0" function="internal">
    <lane id=":31.30_0_0" index="0" disallow="pedestrian tram rail_urban rail rail_electric rail_fast ship" speed="9.72" length="0.30" width="3.75" shape="781.49,155.11,12.94 781.61,155.38,12.94"/>
  </edge>
  <edge id=":33.32_0" function="internal">
    <lane id=":33.32_0_0" index="0" disallow="pedestrian tram rail_urban rail rail_electric rail_fast ship" speed="11.11" length="0.30" width="3.75" shape="405.00,679.98,10.28 405.04,679.68,10.28"/>
  </edge>
  <edge id=":35.34_0" function="internal">
    <lane id=":35.34_0_0" index="0" disallow="pedestrian tram rail_urban rail rail_electric rail_fast ship" speed="8.33" length="0.28" width="3.75" shape="533.11,740.90,10.70 533.34,741.06,10.74"/>
  </edge>
  <edge id=":4_0" function="internal">
    <lane id=":4_0_0" index="0" disallow="pedestrian tram rail_urban rail rail_electric rail_fast ship" speed="14.13" length="17.57" width="3.75" shape="78.76,130.64,20.00 82.89,134.45,20.00 86.67,136.77,20.00 90.30,137.97,20.00 93.96,138.44,20.00"/>
  </edge>
  <edge id=":4_1" function="internal">
    <lane id=":4_1_0" index="0" disallow="pedestrian tram rail_urban rail rail_electric rail_fast ship" speed="22.22" length="18.30" width="3.75" shape="78.76,130.64,20.00 91.23,144.03,20.00"/>
    <lane id=":4_1_1" index="1" disallow="pedestrian tram rail_urban rail rail_electric rail_fast ship" speed="22.22" length="18.30" width="3.75" shape="76.01,133.20,20.00 88.48,146.59,20.00"/>
    <lane id=":4_1_2" index="2" disallow="pedestrian tram rail_urban rail rail_electric rail_fast ship" speed="22.22" length="18.30" width="3.75" shape="73.27,135.75,20.00 85.74,149.14,20.00"/>
  </edge>
  <edge id=":5_0" function="internal">
    <lane id=":5_0_0" index="0" disallow="pedestrian tram rail_urban rail rail_electric rail_fast ship" speed="15.97" length="97.26" width="3.75" shape="949.17,1229.85,20.00 937.24,1212.79,20.00 918.79,1187.19,20.00 901.30,1163.21,20.00 892.25,1151.00,20.00"/>
  </edge>
  <edge id=":5_1" function="internal">
    <lane id=":5_1_0" index="0" disallow="pedestrian tram rail_urban rail rail_electric rail_fast ship" speed="22.22" length="97.32" width="3.75" shape="949.17,1229.85,20.00 895.57,1148.63,20.00"/>
    <lane id=":5_1_1" index="1" disallow="pedestrian tram rail_urban rail rail_electric rail_fast ship" speed="22.22" length="97.32" width="3.75" shape="952.31,1227.79,20.00 898.70,1146.56,20.00"/>
    <lane id=":5_1_2" index="2" disallow="pedestrian tram rail_urban rail rail_electric rail_fast ship" speed="22.22" length="97.32" width="3.75" shape="955.44,1225.73,20.00 901.83,1144.49,20.00"/>
  </edge>
  <edge id=":6_0" function="internal">
    <lane id=":6_0_0" index="0" disallow="pedestrian tram rail_urban rail rail_electric rail_fast ship" speed="16.67" length="77.31" width="3.75" shape="834.78,1057.60,20.00 824.39,1043.27,20.00 809.47,1023.59,20.00 795.49,1005.54,20.00 787.96,996.09,20.00"/>
  </edge>
  <edge id=":6_1" function="internal">
    <lane id=":6_1_0" index="0" disallow="pedestrian tram rail_urban rail rail_electric rail_fast ship" speed="22.22" length="77.40" width="3.75" shape="834.78,1057.60,20.00 791.33,993.58,20.00"/>
    <lane id=":6_1_1" index="1" disallow="pedestrian tram rail_urban rail rail_electric rail_fast ship" speed="22.22" length="77.40" width="3.75" shape="837.89,1055.50,20.00 794.42,991.46,20.00"/>
    <lane id=":6_1_2" index="2" disallow="pedestrian tram rail_urban rail rail_electric rail_fast ship" speed="22.22" length="77.40" width="3.75" shape="841.00,1053.41,20.00 797.52,989.34,20.00"/>
  </edge>
  <edge id=":7_0" function="internal">
    <lane id=":7_0_0" index="0" disallow="pedestrian tram rail_urban rail rail_electric rail_fast ship" speed="20.83" length="51.64" width="3.75" shape="966.92,1207.40,19.87 970.46,1214.66,19.89 976.87,1227.12,19.93 984.44,1241.07,19.97 991.46,1252.81,20.00"/>
  </edge>
  <edge id=":7_1" function="internal">
    <lane id=":7_1_0" index="0" disallow="pedestrian tram rail_urban rail rail_electric rail_fast ship" speed="22.22" length="51.19" width="3.75" shape="963.34,1210.03,20.00 991.46,1252.81,20.00"/>
    <lane id=":7_1_1" index="1" disallow="pedestrian tram rail_urban rail rail_electric rail_fast ship" speed="22.22" length="51.19" width="3.75" shape="960.21,1212.09,20.00 988.33,1254.87,20.00"/>
    <lane id=":7_1_2" index="2" disallow="pedestrian tram rail_urban rail rail_electric rail_fast ship" speed="22.22" length="51.19" width="3.75" shape="957.08,1214.15,20.00 985.19,1256.93,20.00"/>
  </edge>
  <edge id=":7.6_0" function="internal">
    <lane id=":7.6_0_0" index="0" disallow="pedestrian tram rail_urban rail rail_electric rail_fast ship" speed="22.22" length="0.30" width="3.75" shape="587.49,555.44 587.74,555.26"/>
    <lane id=":7.6_0_1" index="1" disallow="pedestrian tram rail_urban rail rail_electric rail_fast ship" speed="22.22" length="0.30" width="3.75" shape="589.70,558.47 589.94,558.29"/>
    <lane id=":7.6_0_2" index="2" disallow="pedestrian tram rail_urban rail rail_electric rail_fast ship" speed="22.22" length="0.30" width="3.75" shape="591.91,561.50 592.15,561.33"/>
  </edge>
  <edge id=":8_0" function="internal">
    <lane id=":8_0_0" index="0" disallow="pedestrian tram rail_urban rail rail_electric rail_fast ship" speed="15.97" length="101.95" width="3.75" shape="187.19,923.00,0.00 174.66,932.84,0.00 150.19,952.36,0.00 124.36,973.17,0.00 107.75,986.90"/>
  </edge>
  <edge id=":8_1" function="internal">
    <lane id=":8_1_0" index="0" disallow="pedestrian tram rail_urban rail rail_electric rail_fast ship" speed="22.22" length="101.73" width="3.75" shape="184.39,920.01 107.75,986.90"/>
    <lane id=":8_1_1" index="1" disallow="pedestrian tram rail_urban rail rail_electric rail_fast ship" speed="22.22" length="101.73" width="3.75" shape="181.92,917.18 105.28,984.08"/>
    <lane id=":8_1_2" index="2" disallow="pedestrian tram rail_urban rail rail_electric rail_fast ship" speed="22.22" length="101.73" width="3.75" shape="179.46,914.35 102.81,981.25"/>
  </edge>
  <edge id=":9_0" function="internal">
    <lane id=":9_0_0" index="0" disallow="pedestrian tram rail_urban rail rail_electric rail_fast ship" speed="18.06" length="47.56" width="3.75" shape="190.61,290.92,19.85 186.40,284.78,19.87 179.00,274.58,19.91 170.18,263.10,19.96 161.74,253.16,20.00"/>
  </edge>
  <edge id=":9_1" function="internal">
    <lane id=":9_1_0" index="0" disallow="pedestrian tram rail_urban rail rail_electric rail_fast ship" speed="22.22" length="47.05" width="3.75" shape="193.77,287.63,20.00 161.74,253.16,20.00"/>
    <lane id=":9_1_1" index="1" disallow="pedestrian tram rail_urban rail rail_electric rail_fast ship" speed="22.22" length="47.05" width="3.75" shape="196.51,285.08,20.00 164.49,250.61,20.00"/>
    <lane id=":9_1_2" index="2" disallow="pedestrian tram rail_urban rail rail_electric rail_fast ship" speed="22.22" length="47.05" width="3.75" shape="199.26,282.53,20.00 167.23,248.06,20.00"/>
  </edge>
  <edge id="-0" from="0.begin" to="0" priority="1" type="driving" shape="1102.73,265.66 1101.57,266.35 1100.38,267.05 1099.17,267.76 1097.94,268.48 1096.69,269.20 1095.43,269.94 1094.14,270.69 1092.83,271.44 1091.50,272.21 1090.15,272.98 1088.79,273.77 1087.40,274.56 1086.00,275.36 1084.57,276.18 1083.13,277.00 1081.67,277.83 1080.19,278.67 1078.69,279.51 1077.17,280.37 1075.64,281.23 1074.08,282.11 1072.51,282.99 1070.92,283.88 1069.32,284.78 1067.69,285.69 1066.05,286.60 1064.40,287.53 1062.72,288.46 1061.03,289.40 1059.32,290.35 1057.60,291.31 1055.86,292.28 1054.10,293.25 1052.33,294.23 1050.54,295.22 1048.73,296.22 1046.91,297.23 1045.08,298.24 1043.23,299.26 1041.36,300.29 1039.48,301.33 1037.58,302.38 1035.67,303.43 1033.75,304.49 1031.81,305.56 1029.85,306.63 1027.88,307.71 1025.90,308.80 1023.91,309.90 1021.90,311.00 1019.87,312.11 1017.83,313.23 1015.78,314.36 1013.72,315.49 1011.65,316.63 1009.56,317.78 1007.45,318.93 1005.34,320.09 1003.21,321.26 1001.07,322.43 998.92,323.61 996.76,324.80 994.59,325.99 992.40,327.19 990.20,328.39 987.99,329.61">
    <lane id="-0_0" index="0" disallow="pedestrian tram rail_urban rail rail_electric rail_fast ship" speed="22.22" length="127.52" width="3.75" shape="1107.50,273.73 1106.33,274.42 1105.13,275.13 1103.91,275.84 1102.67,276.57 1101.41,277.30 1100.13,278.05 1098.84,278.80 1097.52,279.56 1096.18,280.33 1094.82,281.11 1093.45,281.90 1092.05,282.70 1090.64,283.51 1089.21,284.32 1087.76,285.15 1086.29,285.98 1084.80,286.82 1083.30,287.68 1081.78,288.53 1080.23,289.40 1078.68,290.28 1077.10,291.16 1075.51,292.06 1073.90,292.96 1072.27,293.87 1070.62,294.79 1068.96,295.72 1067.28,296.65 1065.59,297.60 1063.88,298.55 1062.15,299.51 1060.40,300.48 1058.64,301.45 1056.87,302.44 1055.08,303.43 1053.27,304.43 1051.45,305.43 1049.61,306.45 1047.76,307.47 1045.89,308.50 1044.00,309.54 1042.11,310.59 1040.19,311.64 1038.27,312.70 1036.32,313.77 1034.37,314.84 1032.40,315.93 1030.42,317.02 1028.42,318.12 1026.41,319.22 1024.38,320.33 1022.35,321.45 1020.30,322.58 1018.23,323.71 1016.16,324.85 1014.07,325.99 1011.96,327.15 1009.85,328.31 1007.72,329.47 1005.58,330.65 1003.43,331.83 1001.27,333.01 999.10,334.21 996.91,335.41 996.02,335.89" type="driving"/>
    <lane id="-0_1" index="1" disallow="pedestrian tram rail_urban rail rail_electric rail_fast ship" speed="22.22" length="127.52" width="3.75" shape="1105.60,270.50 1104.43,271.19 1103.23,271.90 1102.02,272.61 1100.78,273.33 1099.53,274.06 1098.25,274.81 1096.96,275.56 1095.64,276.32 1094.31,277.08 1092.96,277.86 1091.58,278.65 1090.19,279.45 1088.78,280.25 1087.35,281.06 1085.91,281.89 1084.44,282.72 1082.96,283.56 1081.45,284.41 1079.93,285.27 1078.40,286.14 1076.84,287.01 1075.26,287.89 1073.67,288.79 1072.06,289.69 1070.44,290.60 1068.80,291.52 1067.14,292.44 1065.46,293.38 1063.76,294.32 1062.05,295.27 1060.33,296.23 1058.59,297.20 1056.83,298.17 1055.05,299.15 1053.26,300.15 1051.45,301.15 1049.63,302.15 1047.80,303.17 1045.94,304.19 1044.08,305.22 1042.19,306.26 1040.30,307.30 1038.38,308.36 1036.46,309.42 1034.52,310.48 1032.56,311.56 1030.59,312.64 1028.61,313.73 1026.61,314.83 1024.60,315.93 1022.58,317.04 1020.54,318.16 1018.49,319.29 1016.43,320.42 1014.35,321.56 1012.26,322.71 1010.16,323.86 1008.05,325.02 1005.92,326.19 1003.78,327.36 1001.63,328.54 999.47,329.73 997.29,330.92 995.10,332.12 994.22,332.60" type="driving"/>
    <lane id="-0_2" index="2" disallow="pedestrian tram rail_urban rail rail_electric rail_fast ship" speed="22.22" length="127.52" width="3.75" shape="1103.69,267.27 1102.52,267.96 1101.33,268.66 1100.12,269.37 1098.89,270.09 1097.64,270.82 1096.37,271.56 1095.08,272.31 1093.77,273.07 1092.44,273.83 1091.09,274.61 1089.72,275.40 1088.33,276.19 1086.92,276.99 1085.50,277.81 1084.05,278.63 1082.59,279.46 1081.11,280.30 1079.61,281.14 1078.09,282.00 1076.56,282.87 1075.00,283.74 1073.43,284.62 1071.84,285.52 1070.23,286.42 1068.61,287.32 1066.97,288.24 1065.31,289.17 1063.63,290.10 1061.94,291.04 1060.23,291.99 1058.51,292.95 1056.77,293.92 1055.01,294.89 1053.24,295.87 1051.45,296.86 1049.64,297.86 1047.82,298.87 1045.98,299.88 1044.13,300.91 1042.27,301.94 1040.38,302.97 1038.49,304.02 1036.58,305.07 1034.65,306.13 1032.71,307.20 1030.76,308.27 1028.79,309.36 1026.80,310.44 1024.81,311.54 1022.80,312.65 1020.77,313.76 1018.74,314.88 1016.69,316.00 1014.62,317.13 1012.55,318.27 1010.46,319.42 1008.36,320.57 1006.24,321.73 1004.12,322.90 1001.98,324.07 999.83,325.25 997.66,326.44 995.49,327.63 993.30,328.83 992.42,329.32" type="driving"/>
  </edge>
  <edge id="-1" from="0" to="2.1" priority="1" type="driving" shape="987.99,329.61 986.47,330.44 984.95,331.28 983.42,332.12 981.89,332.96 980.35,333.80 978.81,334.65 977.26,335.50 975.71,336.35 974.15,337.21 972.59,338.07 971.02,338.93 969.45,339.79 967.87,340.66 966.29,341.53 964.70,342.40 963.11,343.28 961.52,344.16 959.92,345.04 958.31,345.92 956.71,346.81 955.09,347.70 953.48,348.59 951.86,349.48 950.23,350.38 948.60,351.28 946.97,352.18 945.33,353.09 943.69,353.99 942.04,354.90 940.39,355.82 938.74,356.73 937.08,357.65 935.42,358.57 933.76,359.49 932.09,360.41 930.42,361.34 928.74,362.27 927.06,363.20 925.38,364.13 923.70,365.07 922.01,366.01 920.31,366.95 918.62,367.89 916.92,368.84 915.22,369.78 913.51,370.73 911.80,371.69 910.09,372.64 908.38,373.60 906.66,374.55 904.94,375.52 903.22,376.48 901.49,377.44 899.76,378.41 898.03,379.38 896.29,380.35 894.56,381.32 892.82,382.30 891.08,383.28 889.33,384.25 887.58,385.24 885.84,386.22 884.08,387.20 882.33,388.19 880.57,389.18 878.82,390.17 877.05,391.16 875.29,392.16 873.53,393.16 871.76,394.15 869.99,395.15 868.22,396.16 866.45,397.16 864.67,398.17 862.90,399.17 861.12,400.18 859.34,401.19 857.56,402.21 855.77,403.22 853.99,404.24 852.20,405.25 850.42,406.27 848.63,407.29 846.84,408.32 845.05,409.34 843.25,410.36 841.46,411.39 839.66,412.42 837.87,413.45 836.07,414.48 834.27,415.52 832.47,416.55 830.67,417.59 828.87,418.62 827.07,419.66 825.26,420.70 823.46,421.75 821.65,422.79 819.85,423.83 818.04,424.88 816.24,425.93 814.43,426.97 812.62,428.02 810.81,429.08 809.01,430.13 807.20,431.18 805.39,432.24 803.58,433.29 801.77,434.35 799.96,435.41 798.15,436.47 796.34,437.53 794.53,438.59 792.72,439.65 790.91,440.72 789.10,441.78 787.29,442.85 785.48,443.92 783.68,444.99 781.87,446.05 780.06,447.13 778.25,448.20 776.44,449.27 774.64,450.34 772.83,451.42 771.02,452.49 769.22,453.57 767.42,454.64 765.61,455.72 763.81,456.80 762.01,457.88 760.21,458.96 758.41,460.04 756.61,461.12 754.81,462.21 753.01,463.29 751.21,464.37 749.42,465.46 747.63,466.55 745.83,467.63 744.04,468.72 742.25,469.81 740.46,470.89 738.68,471.98 736.89,473.07 735.11,474.16 733.32,475.25 731.54,476.34 729.76,477.44 727.99,478.53 726.21,479.62 724.44,480.72 722.67,481.81 720.90,482.90 719.13,484.00 717.36,485.09 715.60,486.19 713.83,487.28 712.07,488.38 710.32,489.48 708.56,490.57 706.81,491.67 705.06,492.77 703.31,493.87 701.56,494.97 699.82,496.06 698.08,497.16 696.34,498.26 694.60,499.36 692.87,500.46 691.14,501.56 689.41,502.66 687.69,503.76 685.96,504.86 684.24,505.96 682.53,507.06 680.81,508.16 679.10,509.26 677.40,510.36 675.69,511.46 673.99,512.56 672.29,513.66 670.60,514.76 668.91,515.86 667.22,516.96 665.53,518.06 663.85,519.17 662.18,520.27 660.50,521.37 658.83,522.47 657.16,523.57 655.50,524.66 653.84,525.76 652.18,526.86 650.53,527.96 648.88,529.06 647.24,530.16 645.60,531.26 643.96,532.36 642.33,533.45 640.70,534.55 639.08,535.65 637.46,536.74 635.84,537.84 634.23,538.94 632.63,540.03 631.02,541.13 629.43,542.22 627.83,543.32 626.24,544.41 624.66,545.50 623.08,546.60 621.50,547.69 619.93,548.78 618.37,549.87 616.81,550.96 615.25,552.05 613.70,553.14 612.15,554.23 610.61,555.32 609.07,556.41 607.54,557.50 606.02,558.58 604.50,559.67 602.98,560.75 601.47,561.84 599.97,562.92 598.47,564.00 596.97,565.09 595.48,566.17">