<?xml version='1.0' encoding='UTF-8'?>
<!-- generated on 2022-09-25 13:28:41 by Eclipse SUMO netconvert Version 1.13.0
<configuration xmlns:xsi="http://www.w3.org/2001/XMLSchema-instance" xsi:noNamespaceSchemaLocation="http://sumo.dlr.de/xsd/netconvertConfiguration.xsd">

    <input>
        <opendrive-files value="map_new_new\17\3\3.xodr"/>
    </input>

    <output>
        <output-file value="C:\Users\LinGe\AppData\Local\Temp\tmpkbmid479\3.net.xml"/>
    </output>

    <processing>
        <geometry.max-grade.fix value="false"/>
    </processing>

    <tls_building>
        <tls.left-green.time value="0"/>
    </tls_building>

    <junctions>
        <rectangular-lane-cut value="true"/>
    </junctions>

    <report>
        <aggregate-warnings value="5"/>
    </report>

</configuration>
-->
<net xmlns:xsi="http://www.w3.org/2001/XMLSchema-instance" version="1.9" junctionCornerDetail="5" rectangularLaneCut="true" limitTurnSpeed="5.50" xsi:noNamespaceSchemaLocation="http://sumo.dlr.de/xsd/net_file.xsd">
  <location netOffset="1.56,101.26" convBoundary="0.00,0.00,1301.55,1302.51" origBoundary="-1.56,-101.26,1300.00,1201.26" projParameter="!"/>
  <type id="bidirectional" priority="1" speed="1.39" disallow="pedestrian tram rail_urban rail rail_electric rail_fast ship" width="3.65"/>
  <type id="border" priority="0" speed="1.39" disallow="all" discard="1" width="0.10"/>
  <type id="driving" priority="1" speed="13.89" disallow="pedestrian tram rail_urban rail rail_electric rail_fast ship" width="3.65"/>
  <type id="entry" priority="1" speed="22.22" disallow="pedestrian tram rail_urban rail rail_electric rail_fast ship" width="3.65"/>
  <type id="exit" priority="1" speed="22.22" disallow="pedestrian tram rail_urban rail rail_electric rail_fast ship" width="3.65"/>
  <type id="median" priority="0" speed="1.39" disallow="all" discard="1" width="0.10"/>
  <type id="mwyEntry" priority="1" speed="22.22" allow="private emergency authority army vip passenger hov taxi bus coach delivery truck trailer motorcycle evehicle custom1 custom2" width="3.65"/>
  <type id="mwyExit" priority="1" speed="22.22" allow="private emergency authority army vip passenger hov taxi bus coach delivery truck trailer motorcycle evehicle custom1 custom2" width="3.65"/>
  <type id="none" priority="0" speed="1.39" disallow="all" discard="1" width="1.00"/>
  <type id="offRamp" priority="1" speed="22.22" allow="private emergency authority army vip passenger hov taxi bus coach delivery truck trailer motorcycle evehicle custom1 custom2" width="3.65"/>
  <type id="onRamp" priority="1" speed="22.22" allow="private emergency authority army vip passenger hov taxi bus coach delivery truck trailer motorcycle evehicle custom1 custom2" width="3.65"/>
  <type id="parking" priority="1" speed="1.39" disallow="pedestrian tram rail_urban rail rail_electric rail_fast ship" width="2.50"/>
  <type id="rail" priority="3" speed="33.33" allow="rail_urban rail rail_electric rail_fast" width="3.65"/>
  <type id="restricted" priority="0" speed="13.89" disallow="all" width="3.65"/>
  <type id="roadWorks" priority="0" speed="1.39" allow="authority" width="3.65"/>
  <type id="shoulder" priority="0" speed="1.39" disallow="all" discard="1" width="1.00"/>
  <type id="special1" priority="1" speed="22.22" allow="custom1" discard="1" width="3.65"/>
  <type id="special2" priority="1" speed="22.22" allow="custom2" discard="1" width="3.65"/>
  <type id="special3" priority="1" speed="22.22" allow="custom1 custom2" discard="1" width="3.65"/>
  <type id="stop" priority="1" speed="13.89" disallow="pedestrian tram rail_urban rail rail_electric rail_fast ship" width="3.65"/>
  <type id="tram" priority="2" speed="13.89" allow="tram" width="3.65"/>
  <edge id=":0_0" function="internal">
    <lane id=":0_0_0" index="0" disallow="pedestrian tram rail_urban rail rail_electric rail_fast ship" speed="19.44" length="45.61" width="3.75" shape="954.79,296.55 943.95,303.24 932.60,311.09 922.99,318.18 917.38,322.58"/>
  </edge>
  <edge id=":0_1" function="internal">
    <lane id=":0_1_0" index="0" disallow="pedestrian tram rail_urban rail rail_electric rail_fast ship" speed="22.22" length="45.77" width="3.75" shape="954.79,296.55 914.85,318.88"/>
    <lane id=":0_1_1" index="1" disallow="pedestrian tram rail_urban rail rail_electric rail_fast ship" speed="22.22" length="45.77" width="3.75" shape="952.96,293.28 913.02,315.61"/>
    <lane id=":0_1_2" index="2" disallow="pedestrian tram rail_urban rail rail_electric rail_fast ship" speed="22.22" length="45.77" width="3.75" shape="951.14,290.00 911.18,312.34"/>
  </edge>
  <edge id=":1_0" function="internal">
    <lane id=":1_0_0" index="0" disallow="pedestrian tram rail_urban rail rail_electric rail_fast ship" speed="20.83" length="53.07" width="3.75" shape="265.85,755.41 275.99,745.89,0.03 287.49,734.25,0.06 297.51,723.77,0.09 303.17,717.71,0.10"/>
  </edge>
  <edge id=":1_1" function="internal">
    <lane id=":1_1_0" index="0" disallow="pedestrian tram rail_urban rail rail_electric rail_fast ship" speed="22.22" length="53.15" width="3.75" shape="265.85,755.41 306.12,720.71"/>
    <lane id=":1_1_1" index="1" disallow="pedestrian tram rail_urban rail rail_electric rail_fast ship" speed="22.22" length="53.15" width="3.75" shape="268.30,758.24 308.56,723.55"/>
    <lane id=":1_1_2" index="2" disallow="pedestrian tram rail_urban rail rail_electric rail_fast ship" speed="22.22" length="53.15" width="3.75" shape="270.75,761.08 311.01,726.40"/>
  </edge>
  <edge id=":10_0" function="internal">
    <lane id=":10_0_0" index="0" disallow="pedestrian tram rail_urban rail rail_electric rail_fast ship" speed="18.84" length="21.73" width="3.75" shape="907.72,1055.83,19.98 907.77,1059.90,19.99 908.37,1064.65,19.99 910.10,1070.13,19.99 913.54,1076.37,20.00"/>
  </edge>
  <edge id=":10_1" function="internal">
    <lane id=":10_1_0" index="0" disallow="pedestrian tram rail_urban rail rail_electric rail_fast ship" speed="22.22" length="20.08" width="3.75" shape="902.29,1059.73,20.00 913.54,1076.37,20.00"/>
    <lane id=":10_1_1" index="1" disallow="pedestrian tram rail_urban rail rail_electric rail_fast ship" speed="22.22" length="20.08" width="3.75" shape="899.19,1061.83,20.00 910.43,1078.46,20.00"/>
    <lane id=":10_1_2" index="2" disallow="pedestrian tram rail_urban rail rail_electric rail_fast ship" speed="22.22" length="20.08" width="3.75" shape="896.08,1063.93,20.00 907.32,1080.56,20.00"/>
  </edge>
  <edge id=":11_0" function="internal">
    <lane id=":11_0_0" index="0" disallow="pedestrian tram rail_urban rail rail_electric rail_fast ship" speed="16.67" length="27.36" width="3.75" shape="403.92,629.10,0.00 408.37,628.39,0.00 414.07,626.42,0.00 420.78,622.89,0.00 428.27,617.47"/>
  </edge>
  <edge id=":11_1" function="internal">
    <lane id=":11_1_0" index="0" disallow="pedestrian tram rail_urban rail rail_electric rail_fast ship" speed="22.22" length="25.84" width="3.75" shape="408.40,634.01 428.27,617.47"/>
    <lane id=":11_1_1" index="1" disallow="pedestrian tram rail_urban rail rail_electric rail_fast ship" speed="22.22" length="25.84" width="3.75" shape="410.80,636.89 430.66,620.36"/>
    <lane id=":11_1_2" index="2" disallow="pedestrian tram rail_urban rail rail_electric rail_fast ship" speed="22.22" length="25.84" width="3.75" shape="413.20,639.76 433.05,623.25"/>
  </edge>
  <edge id=":11.10_0" function="internal">
    <lane id=":11.10_0_0" index="0" disallow="pedestrian tram rail_urban rail rail_electric rail_fast ship" speed="22.22" length="0.30" width="3.75" shape="604.68,640.43,20.00 604.88,640.67,20.00"/>
    <lane id=":11.10_0_1" index="1" disallow="pedestrian tram rail_urban rail rail_electric rail_fast ship" speed="22.22" length="0.30" width="3.75" shape="601.77,642.79,20.00 601.96,643.03,20.00"/>
    <lane id=":11.10_0_2" index="2" disallow="pedestrian tram rail_urban rail rail_electric rail_fast ship" speed="22.22" length="0.30" width="3.75" shape="598.85,645.15,20.00 599.04,645.38,20.00"/>
  </edge>
  <edge id=":16.15_0" function="internal">
    <lane id=":16.15_0_0" index="0" disallow="pedestrian tram rail_urban rail rail_electric rail_fast ship" speed="22.22" length="0.30" width="3.75" shape="587.18,654.96,20.00 586.99,654.73,20.00"/>
    <lane id=":16.15_0_1" index="1" disallow="pedestrian tram rail_urban rail rail_electric rail_fast ship" speed="22.22" length="0.30" width="3.75" shape="590.09,652.61,20.00 589.91,652.37,20.00"/>
    <lane id=":16.15_0_2" index="2" disallow="pedestrian tram rail_urban rail rail_electric rail_fast ship" speed="22.22" length="0.30" width="3.75" shape="593.01,650.25,20.00 592.82,650.02,20.00"/>
  </edge>
  <edge id=":2_0" function="internal">
    <lane id=":2_0_0" index="0" disallow="pedestrian tram rail_urban rail rail_electric rail_fast ship" speed="16.67" length="46.83" width="3.75" shape="149.85,142.01,20.00 159.13,151.01,19.96 169.80,160.41,19.91 179.29,168.33,19.87 185.02,172.89,19.85"/>
  </edge>
  <edge id=":2_1" function="internal">
    <lane id=":2_1_0" index="0" disallow="pedestrian tram rail_urban rail rail_electric rail_fast ship" speed="22.22" length="46.97" width="3.75" shape="149.85,142.01,20.00 182.10,176.17,20.00"/>
    <lane id=":2_1_1" index="1" disallow="pedestrian tram rail_urban rail rail_electric rail_fast ship" speed="22.22" length="46.97" width="3.75" shape="147.13,144.59,20.00 179.37,178.74,20.00"/>
    <lane id=":2_1_2" index="2" disallow="pedestrian tram rail_urban rail rail_electric rail_fast ship" speed="22.22" length="46.97" width="3.75" shape="144.40,147.16,20.00 176.64,181.31,20.00"/>
  </edge>
  <edge id=":2.1_0" function="internal">
    <lane id=":2.1_0_0" index="0" disallow="pedestrian tram rail_urban rail rail_electric rail_fast ship" speed="22.22" length="0.30" width="3.75" shape="587.68,520.46 587.44,520.63"/>
    <lane id=":2.1_0_1" index="1" disallow="pedestrian tram rail_urban rail rail_electric rail_fast ship" speed="22.22" length="0.30" width="3.75" shape="585.48,517.43 585.24,517.60"/>
    <lane id=":2.1_0_2" index="2" disallow="pedestrian tram rail_urban rail rail_electric rail_fast ship" speed="22.22" length="0.30" width="3.75" shape="583.28,514.39 583.03,514.57"/>
  </edge>
  <edge id=":20.19_0" function="internal">
    <lane id=":20.19_0_0" index="0" disallow="pedestrian tram rail_urban rail rail_electric rail_fast ship" speed="11.11" length="0.30" width="3.75" shape="525.50,783.16,8.10 525.22,783.05,8.09"/>
  </edge>
  <edge id=":22.21_0" function="internal">
    <lane id=":22.21_0_0" index="0" disallow="pedestrian tram rail_urban rail rail_electric rail_fast ship" speed="11.11" length="0.30" width="3.75" shape="498.89,334.14,11.04 499.19,334.18,11.03"/>
  </edge>
  <edge id=":25.24_0" function="internal">
    <lane id=":25.24_0_0" index="0" disallow="pedestrian tram rail_urban rail rail_electric rail_fast ship" speed="16.67" length="0.30" width="3.75" shape="767.12,586.67,8.73 767.09,586.97,8.74"/>
  </edge>
  <edge id=":27.26_0" function="internal">
    <lane id=":27.26_0_0" index="0" disallow="pedestrian tram rail_urban rail rail_electric rail_fast ship" speed="13.89" length="0.30" width="3.75" shape="1149.03,1101.70,12.11 1148.74,1101.77,12.12"/>
  </edge>
  <edge id=":29.28_0" function="internal">
    <lane id=":29.28_0_0" index="0" disallow="pedestrian tram rail_urban rail rail_electric rail_fast ship" speed="19.44" length="0.30" width="3.75" shape="778.03,560.78,10.10 778.29,560.92,10.11"/>
  </edge>
  <edge id=":3_0" function="internal">
    <lane id=":3_0_0" index="0" disallow="pedestrian tram rail_urban rail rail_electric rail_fast ship" speed="16.67" length="75.78" width="3.75" shape="952.50,1174.93,20.00 942.29,1160.77,20.00 927.73,1141.47,20.00 914.14,1123.79,20.00 906.83,1114.47,20.00"/>
  </edge>
  <edge id=":3_1" function="internal">
    <lane id=":3_1_0" index="0" disallow="pedestrian tram rail_urban rail rail_electric rail_fast ship" speed="22.22" length="75.86" width="3.75" shape="952.50,1174.93,20.00 910.15,1111.99,20.00"/>
    <lane id=":3_1_1" index="1" disallow="pedestrian tram rail_urban rail rail_electric rail_fast ship" speed="22.22" length="75.86" width="3.75" shape="955.61,1172.84,20.00 913.26,1109.90,20.00"/>
    <lane id=":3_1_2" index="2" disallow="pedestrian tram rail_urban rail rail_electric rail_fast ship" speed="22.22" length="75.86" width="3.75" shape="958.73,1170.74,20.00 916.37,1107.80,20.00"/>
  </edge>
  <edge id=":31.30_0" function="internal">
    <lane id=":31.30_0_0" index="0" disallow="pedestrian tram rail_urban rail rail_electric rail_fast ship" speed="11.11" length="0.27" width="3.75" shape="360.31,543.55,10.17 360.24,543.81,10.13"/>
  </edge>
  <edge id=":4_0" function="internal">
    <lane id=":4_0_0" index="0" disallow="pedestrian tram rail_urban rail rail_electric rail_fast ship" speed="16.67" length="7.97" width="3.75" shape="462.43,511.52,20.00 456.99,505.70,19.99"/>
  </edge>
  <edge id=":4_1" function="internal">
    <lane id=":4_1_0" index="0" disallow="pedestrian tram rail_urban rail rail_electric rail_fast ship" speed="22.22" length="3.98" width="3.75" shape="462.43,511.52,20.00 459.76,508.58,20.00"/>
    <lane id=":4_1_1" index="1" disallow="pedestrian tram rail_urban rail rail_electric rail_fast ship" speed="22.22" length="3.98" width="3.75" shape="465.21,509.01,20.00 462.55,506.06,20.00"/>
    <lane id=":4_1_2" index="2" disallow="pedestrian tram rail_urban rail rail_electric rail_fast ship" speed="22.22" length="3.98" width="3.75" shape="467.99,506.50,20.00 465.33,503.55,20.00"/>
  </edge>
  <edge id=":5_0" function="internal">
    <lane id=":5_0_0" index="0" disallow="pedestrian tram rail_urban rail rail_electric rail_fast ship" speed="16.67" length="87.42" width="3.75" shape="232.39,820.15 221.53,828.43 200.81,844.64 178.75,862.17 163.86,874.42"/>
  </edge>
  <edge id=":5_1" function="internal">
    <lane id=":5_1_0" index="0" disallow="pedestrian tram rail_urban rail rail_electric rail_fast ship" speed="22.22" length="87.14" width="3.75" shape="229.46,817.09 163.86,874.42"/>
    <lane id=":5_1_1" index="1" disallow="pedestrian tram rail_urban rail rail_electric rail_fast ship" speed="22.22" length="87.14" width="3.75" shape="227.00,814.26 161.39,871.60"/>
    <lane id=":5_1_2" index="2" disallow="pedestrian tram rail_urban rail rail_electric rail_fast ship" speed="22.22" length="87.14" width="3.75" shape="224.54,811.43 158.92,868.78"/>
  </edge>
  <edge id=":6_0" function="internal">
    <lane id=":6_0_0" index="0" disallow="pedestrian tram rail_urban rail rail_electric rail_fast ship" speed="16.67" length="57.68" width="3.75" shape="929.35,279.70,0.19 937.67,276.22,0.16 952.38,269.72,0.11 968.68,262.18,0.05 981.74,255.60"/>
  </edge>
  <edge id=":6_1" function="internal">
    <lane id=":6_1_0" index="0" disallow="pedestrian tram rail_urban rail rail_electric rail_fast ship" speed="22.22" length="57.27" width="3.75" shape="931.68,283.42 981.74,255.60"/>
    <lane id=":6_1_1" index="1" disallow="pedestrian tram rail_urban rail rail_electric rail_fast ship" speed="22.22" length="57.27" width="3.75" shape="933.50,286.70 983.56,258.88"/>
    <lane id=":6_1_2" index="2" disallow="pedestrian tram rail_urban rail rail_electric rail_fast ship" speed="22.22" length="57.27" width="3.75" shape="935.33,289.97 985.38,262.16"/>
  </edge>
  <edge id=":7_0" function="internal">
    <lane id=":7_0_0" index="0" disallow="pedestrian tram rail_urban rail rail_electric rail_fast ship" speed="19.44" length="44.21" width="3.75" shape="858.51,987.22,19.83 861.48,993.47,19.86 866.63,1003.71,19.90 872.96,1015.42,19.95 879.51,1026.09,20.00"/>
  </edge>
  <edge id=":7_1" function="internal">
    <lane id=":7_1_0" index="0" disallow="pedestrian tram rail_urban rail rail_electric rail_fast ship" speed="22.22" length="43.70" width="3.75" shape="854.93,989.95,20.00 879.51,1026.09,20.00"/>
    <lane id=":7_1_1" index="1" disallow="pedestrian tram rail_urban rail rail_electric rail_fast ship" speed="22.22" length="43.70" width="3.75" shape="851.83,992.06,20.00 876.40,1028.20,20.00"/>
    <lane id=":7_1_2" index="2" disallow="pedestrian tram rail_urban rail rail_electric rail_fast ship" speed="22.22" length="43.70" width="3.75" shape="848.73,994.17,20.00 873.30,1030.31,20.00"/>
  </edge>
  <edge id=":7.6_0" function="internal">
    <lane id=":7.6_0_0" index="0" disallow="pedestrian tram rail_urban rail rail_electric rail_fast ship" speed="22.22" length="0.30" width="3.75" shape="574.06,502.24 574.31,502.06"/>
    <lane id=":7.6_0_1" index="1" disallow="pedestrian tram rail_urban rail rail_electric rail_fast ship" speed="22.22" length="0.30" width="3.75" shape="576.27,505.27 576.51,505.09"/>
    <lane id=":7.6_0_2" index="2" disallow="pedestrian tram rail_urban rail rail_electric rail_fast ship" speed="22.22" length="0.30" width="3.75" shape="578.48,508.30 578.71,508.13"/>
  </edge>
  <edge id=":8_0" function="internal">
    <lane id=":8_0_0" index="0" disallow="pedestrian tram rail_urban rail rail_electric rail_fast ship" speed="9.61" length="2.32" width="3.75" shape="841.32,410.89,3.95 840.90,411.44,3.97 840.58,411.81,3.98 840.34,412.21,3.99 840.17,412.86,4.00"/>
  </edge>
  <edge id=":8_1" function="internal">
    <lane id=":8_1_0" index="0" disallow="pedestrian tram rail_urban rail rail_electric rail_fast ship" speed="16.67" length="3.02" width="3.75" shape="841.32,410.89,3.95 839.64,413.40,4.05"/>
  </edge>
  <edge id=":9_0" function="internal">
    <lane id=":9_0_0" index="0" disallow="pedestrian tram rail_urban rail rail_electric rail_fast ship" speed="22.22" length="3.94" width="3.75" shape="459.63,508.43,20.00 456.99,505.51,20.00"/>
    <lane id=":9_0_1" index="1" disallow="pedestrian tram rail_urban rail rail_electric rail_fast ship" speed="22.22" length="3.94" width="3.75" shape="462.41,505.91,20.00 459.77,502.99,20.00"/>
    <lane id=":9_0_2" index="2" disallow="pedestrian tram rail_urban rail rail_electric rail_fast ship" speed="22.22" length="3.94" width="3.75" shape="465.19,503.40,20.00 462.55,500.48,20.00"/>
  </edge>
  <edge id=":9_3" function="internal">
    <lane id=":9_3_0" index="0" disallow="pedestrian tram rail_urban rail rail_electric rail_fast ship" speed="18.06" length="8.00" width="3.75" shape="462.35,511.44,20.00 456.99,505.51,20.00"/>
  </edge>
  <edge id="-0" from="0.begin" to="0" priority="1" type="driving" shape="1102.73,202.87 1101.67,203.51 1100.59,204.15 1099.49,204.80 1098.37,205.46 1097.23,206.12 1096.07,206.80 1094.90,207.49 1093.71,208.18 1092.50,208.88 1091.27,209.60 1090.03,210.32 1088.77,211.04 1087.49,211.78 1086.19,212.53 1084.88,213.28 1083.55,214.04 1082.20,214.81 1080.84,215.59 1079.46,216.38 1078.06,217.17 1076.65,217.98 1075.22,218.79 1073.77,219.61 1072.31,220.44 1070.83,221.27 1069.34,222.11 1067.83,222.96 1066.31,223.82 1064.77,224.69 1063.22,225.56 1061.65,226.45 1060.06,227.34 1058.46,228.23 1056.85,229.14 1055.22,230.05 1053.58,230.97 1051.92,231.89 1050.25,232.83 1048.56,233.77 1046.86,234.72 1045.15,235.67 1043.42,236.64 1041.68,237.61 1039.92,238.58 1038.15,239.57 1036.37,240.56 1034.58,241.56 1032.77,242.56 1030.95,243.57 1029.12,244.59 1027.27,245.61 1025.41,246.65 1023.54,247.68 1021.66,248.73 1019.76,249.78 1017.86,250.84 1015.94,251.90 1014.01,252.97 1012.06,254.05 1010.11,255.13 1008.14,256.22 1006.17,257.32 1004.18,258.42 1002.18,259.53 1000.17,260.64 998.15,261.76 996.12,262.88 994.07,264.02 992.02,265.15 989.96,266.30 987.89,267.45 985.80,268.60 983.71,269.76 981.61,270.93 979.49,272.10 977.37,273.28 975.24,274.46 973.10,275.65 970.95,276.84 968.79,278.04 966.62,279.25 964.44,280.45 962.26,281.67 960.06,282.89 957.86,284.11 955.65,285.34 953.43,286.58 951.20,287.82 948.96,289.07 946.72,290.32">
    <lane id="-0_0" index="0" disallow="pedestrian tram rail_urban rail rail_electric rail_fast ship" speed="22.22" length="175.00" width="3.75" shape="1107.52,210.93 1106.45,211.57 1105.36,212.22 1104.25,212.87 1103.12,213.54 1101.97,214.21 1100.81,214.89 1099.63,215.58 1098.43,216.28 1097.21,216.99 1095.97,217.71 1094.72,218.43 1093.45,219.16 1092.17,219.91 1090.86,220.66 1089.54,221.41 1088.21,222.18 1086.85,222.95 1085.48,223.73 1084.10,224.53 1082.70,225.32 1081.28,226.13 1079.84,226.94 1078.39,227.77 1076.93,228.60 1075.45,229.43 1073.95,230.28 1072.44,231.13 1070.91,231.99 1069.37,232.86 1067.81,233.74 1066.24,234.62 1064.65,235.51 1063.05,236.41 1061.43,237.32 1059.80,238.23 1058.15,239.15 1056.49,240.08 1054.82,241.01 1053.13,241.96 1051.43,242.91 1049.71,243.86 1047.98,244.83 1046.24,245.80 1044.48,246.77 1042.71,247.76 1040.93,248.75 1039.13,249.75 1037.32,250.75 1035.50,251.77 1033.67,252.79 1031.82,253.81 1029.96,254.84 1028.09,255.88 1026.21,256.93 1024.31,257.98 1022.40,259.04 1020.48,260.10 1018.55,261.17 1016.61,262.25 1014.65,263.33 1012.69,264.42 1010.71,265.52 1008.72,266.62 1006.72,267.73 1004.71,268.84 1002.69,269.96 1000.66,271.09 998.62,272.22 996.57,273.35 994.50,274.50 992.43,275.65 990.35,276.80 988.26,277.96 986.15,279.13 984.04,280.30 981.92,281.48 979.79,282.66 977.65,283.85 975.50,285.04 973.34,286.24 971.17,287.44 969.00,288.65 966.81,289.86 964.62,291.08 962.42,292.31 960.20,293.54 957.99,294.77 955.76,296.01 954.79,296.55" type="driving"/>
    <lane id="-0_1" index="1" disallow="pedestrian tram rail_urban rail rail_electric rail_fast ship" speed="22.22" length="175.00" width="3.75" shape="1105.61,207.71 1104.54,208.34 1103.45,208.99 1102.34,209.64 1101.22,210.31 1100.08,210.98 1098.91,211.66 1097.74,212.35 1096.54,213.04 1095.33,213.75 1094.09,214.46 1092.84,215.19 1091.58,215.92 1090.30,216.66 1088.99,217.40 1087.68,218.16 1086.34,218.92 1084.99,219.70 1083.63,220.48 1082.24,221.27 1080.84,222.06 1079.43,222.87 1077.99,223.68 1076.55,224.50 1075.08,225.33 1073.60,226.17 1072.11,227.01 1070.60,227.86 1069.07,228.72 1067.53,229.59 1065.97,230.47 1064.40,231.35 1062.81,232.24 1061.21,233.14 1059.60,234.04 1057.97,234.96 1056.32,235.88 1054.66,236.80 1052.99,237.74 1051.30,238.68 1049.60,239.63 1047.89,240.59 1046.16,241.55 1044.41,242.52 1042.66,243.50 1040.89,244.48 1039.11,245.47 1037.31,246.47 1035.50,247.48 1033.68,248.49 1031.85,249.51 1030.00,250.53 1028.14,251.56 1026.27,252.60 1024.39,253.65 1022.49,254.70 1020.58,255.76 1018.67,256.82 1016.73,257.89 1014.79,258.97 1012.84,260.05 1010.87,261.14 1008.89,262.24 1006.91,263.34 1004.91,264.45 1002.90,265.56 1000.88,266.68 998.84,267.80 996.80,268.94 994.75,270.07 992.69,271.22 990.61,272.37 988.53,273.52 986.44,274.68 984.33,275.85 982.22,277.02 980.10,278.20 977.97,279.38 975.83,280.57 973.68,281.76 971.52,282.96 969.35,284.16 967.17,285.37 964.99,286.59 962.80,287.81 960.59,289.03 958.38,290.26 956.16,291.50 953.94,292.73 952.96,293.28" type="driving"/>
    <lane id="-0_2" index="2" disallow="pedestrian tram rail_urban rail rail_electric rail_fast ship" speed="22.22" length="175.00" width="3.75" shape="1103.69,204.49 1102.63,205.12 1101.54,205.76 1100.44,206.41 1099.32,207.07 1098.18,207.74 1097.02,208.42 1095.85,209.11 1094.65,209.80 1093.44,210.51 1092.21,211.22 1090.97,211.94 1089.70,212.67 1088.42,213.41 1087.13,214.15 1085.81,214.91 1084.48,215.67 1083.13,216.44 1081.77,217.22 1080.39,218.01 1078.99,218.80 1077.57,219.61 1076.14,220.42 1074.70,221.24 1073.24,222.07 1071.76,222.90 1070.26,223.75 1068.75,224.60 1067.23,225.46 1065.69,226.32 1064.13,227.20 1062.56,228.08 1060.98,228.97 1059.38,229.87 1057.76,230.77 1056.13,231.68 1054.49,232.60 1052.83,233.53 1051.16,234.47 1049.47,235.41 1047.77,236.36 1046.06,237.31 1044.33,238.27 1042.59,239.24 1040.83,240.22 1039.07,241.21 1037.28,242.20 1035.49,243.19 1033.68,244.20 1031.86,245.21 1030.03,246.23 1028.18,247.25 1026.32,248.28 1024.45,249.32 1022.57,250.37 1020.67,251.42 1018.77,252.48 1016.85,253.54 1014.92,254.61 1012.97,255.69 1011.02,256.77 1009.05,257.86 1007.08,258.96 1005.09,260.06 1003.09,261.17 1001.08,262.28 999.06,263.40 997.03,264.52 994.98,265.66 992.93,266.79 990.87,267.94 988.80,269.09 986.71,270.24 984.62,271.40 982.52,272.57 980.40,273.74 978.28,274.92 976.15,276.10 974.01,277.29 971.86,278.48 969.70,279.68 967.53,280.88 965.35,282.09 963.17,283.31 960.97,284.53 958.77,285.75 956.56,286.98 954.34,288.22 952.11,289.46 951.14,290.00" type="driving"/>
  </edge>
  <edge id="-1" from="0" to="2.1" priority="1" type="driving" shape="946.72,290.32 945.09,291.22 943.47,292.13 941.83,293.04 940.19,293.95 938.55,294.87 936.91,295.79 935.26,296.71 933.61,297.63 931.95,298.56 930.29,299.48 928.63,300.41 926.96,301.35 925.29,302.28 923.62,303.22 921.94,304.16 920.26,305.10 918.58,306.04 916.89,306.99 915.20,307.94 913.51,308.89 911.81,309.84 910.11,310.79 908.41,311.75 906.70,312.71 905.00,313.67 903.28,314.63 901.57,315.60 899.85,316.57 898.13,317.54 896.41,318.51 894.69,319.48 892.96,320.46 891.23,321.43 889.49,322.41 887.76,323.39 886.02,324.38 884.28,325.36 882.54,326.35 880.79,327.34 879.05,328.33 877.30,329.32 875.55,330.31 873.79,331.31 872.04,332.31 870.28,333.31 868.52,334.31 866.76,335.31 865.00,336.31 863.23,337.32 861.46,338.33 859.69,339.34 857.92,340.35 856.15,341.36 854.38,342.38 852.60,343.39 850.83,344.41 849.05,345.43 847.27,346.45 845.49,347.47 843.71,348.49 841.92,349.52 840.14,350.55 838.35,351.57 836.56,352.60 834.78,353.63 832.99,354.67 831.20,355.70 829.41,356.73 827.61,357.77 825.82,358.81 824.03,359.85 822.23,360.89 820.44,361.93 818.64,362.97 816.84,364.01 815.05,365.06 813.25,366.11 811.45,367.15 809.65,368.20 807.85,369.25 806.05,370.30 804.25,371.35 802.45,372.41 800.65,373.46 798.85,374.52 797.05,375.57 795.25,376.63 793.45,377.69 791.65,378.75 789.85,379.81 788.05,380.87 786.25,381.93 784.45,382.99 782.65,384.06 780.85,385.12 779.05,386.19 777.25,387.25 775.45,388.32 773.66,389.39 771.86,390.46 770.06,391.52 768.27,392.59 766.47,393.67 764.68,394.74 762.88,395.81 761.09,396.88 759.30,397.96 757.50,399.03 755.71,400.11 753.92,401.18 752.14,402.26 750.35,403.33 748.56,404.41 746.78,405.49 744.99,406.57 743.21,407.65 741.43,408.73 739.65,409.80 737.87,410.89 736.09,411.97 734.32,413.05 732.54,414.13 730.77,415.21 729.00,416.29 727.23,417.37 725.46,418.46 723.69,419.54 721.93,420.62 720.17,421.71 718.41,422.79 716.65,423.88 714.89,424.96 713.14,426.05 711.39,427.13 709.64,428.22 707.89,429.30 706.14,430.39 704.40,431.47 702.66,432.56 700.92,433.64 699.18,434.73 697.45,435.81 695.72,436.90 693.99,437.98 692.26,439.07 690.54,440.16 688.82,441.24 687.10,442.33 685.38,443.41 683.67,444.50 681.96,445.58 680.25,446.67 678.55,447.75 676.85,448.84 675.15,449.92 673.46,451.01 671.77,452.09 670.08,453.18 668.39,454.26 666.71,455.34 665.03,456.43 663.36,457.51 661.68,458.59 660.02,459.67 658.35,460.76 656.69,461.84 655.03,462.92 653.38,464.00 651.73,465.08 650.08,466.16 648.44,467.24 646.80,468.32 645.17,469.40 643.54,470.47 641.91,471.55 640.29,472.63 638.67,473.71 637.05,474.78 635.44,475.86 633.83,476.93 632.23,478.00 630.63,479.08 629.04,480.15 627.45,481.22 625.87,482.29 624.29,483.36 622.71,484.43 621.14,485.50 619.57,486.57 618.01,487.64 616.46,488.70 614.90,489.77 613.36,490.83 611.81,491.90 610.28,492.96 608.74,494.02 607.21,495.08 605.69,496.14 604.17,497.20 602.66,498.26 601.15,499.32 599.65,500.37 598.15,501.43 596.66,502.48 595.18,503.54 593.70,504.59 592.22,505.64 590.75,506.69 589.29,507.74 587.83,508.79 586.38,509.83 584.93,510.88 583.49,511.92 582.05,512.96">