<?xml version='1.0' encoding='UTF-8'?>
<!-- generated on 2022-09-05 19:14:24 by Eclipse SUMO netconvert Version 1.13.0
<configuration xmlns:xsi="http://www.w3.org/2001/XMLSchema-instance" xsi:noNamespaceSchemaLocation="http://sumo.dlr.de/xsd/netconvertConfiguration.xsd">

    <input>
        <opendrive-files value="map\classification\12\64627531\64627531.xodr"/>
    </input>

    <output>
        <output-file value="C:\Users\LinGe\AppData\Local\Temp\tmp2sfr5mij\64627531.net.xml"/>
    </output>

    <processing>
        <geometry.max-grade.fix value="false"/>
    </processing>

    <tls_building>
        <tls.left-green.time value="0"/>
    </tls_building>

    <junctions>
        <rectangular-lane-cut value="true"/>
    </junctions>

    <report>
        <aggregate-warnings value="5"/>
    </report>

</configuration>
-->
<net xmlns:xsi="http://www.w3.org/2001/XMLSchema-instance" version="1.9" junctionCornerDetail="5" rectangularLaneCut="true" limitTurnSpeed="5.50" xsi:noNamespaceSchemaLocation="http://sumo.dlr.de/xsd/net_file.xsd">
  <location netOffset="1.56,101.26" convBoundary="0.00,0.00,1102.73,1302.51" origBoundary="-1.56,-101.26,1101.18,1201.26" projParameter="!"/>
  <type id="bidirectional" priority="1" speed="1.39" disallow="pedestrian tram rail_urban rail rail_electric rail_fast ship" width="3.65"/>
  <type id="border" priority="0" speed="1.39" disallow="all" discard="1" width="0.10"/>
  <type id="driving" priority="1" speed="13.89" disallow="pedestrian tram rail_urban rail rail_electric rail_fast ship" width="3.65"/>
  <type id="entry" priority="1" speed="22.22" disallow="pedestrian tram rail_urban rail rail_electric rail_fast ship" width="3.65"/>
  <type id="exit" priority="1" speed="22.22" disallow="pedestrian tram rail_urban rail rail_electric rail_fast ship" width="3.65"/>
  <type id="median" priority="0" speed="1.39" disallow="all" discard="1" width="0.10"/>
  <type id="mwyEntry" priority="1" speed="22.22" allow="private emergency authority army vip passenger hov taxi bus coach delivery truck trailer motorcycle evehicle custom1 custom2" width="3.65"/>
  <type id="mwyExit" priority="1" speed="22.22" allow="private emergency authority army vip passenger hov taxi bus coach delivery truck trailer motorcycle evehicle custom1 custom2" width="3.65"/>
  <type id="none" priority="0" speed="1.39" disallow="all" discard="1" width="1.00"/>
  <type id="offRamp" priority="1" speed="22.22" allow="private emergency authority army vip passenger hov taxi bus coach delivery truck trailer motorcycle evehicle custom1 custom2" width="3.65"/>
  <type id="onRamp" priority="1" speed="22.22" allow="private emergency authority army vip passenger hov taxi bus coach delivery truck trailer motorcycle evehicle custom1 custom2" width="3.65"/>
  <type id="parking" priority="1" speed="1.39" disallow="pedestrian tram rail_urban rail rail_electric rail_fast ship" width="2.50"/>
  <type id="rail" priority="3" speed="33.33" allow="rail_urban rail rail_electric rail_fast" width="3.65"/>
  <type id="restricted" priority="0" speed="13.89" disallow="all" width="3.65"/>
  <type id="roadWorks" priority="0" speed="1.39" allow="authority" width="3.65"/>
  <type id="shoulder" priority="0" speed="1.39" disallow="all" discard="1" width="1.00"/>
  <type id="special1" priority="1" speed="22.22" allow="custom1" discard="1" width="3.65"/>
  <type id="special2" priority="1" speed="22.22" allow="custom2" discard="1" width="3.65"/>
  <type id="special3" priority="1" speed="22.22" allow="custom1 custom2" discard="1" width="3.65"/>
  <type id="stop" priority="1" speed="13.89" disallow="pedestrian tram rail_urban rail rail_electric rail_fast ship" width="3.65"/>
  <type id="tram" priority="2" speed="13.89" allow="tram" width="3.65"/>
  <edge id=":0_0" function="internal">
    <lane id=":0_0_0" index="0" disallow="pedestrian tram rail_urban rail rail_electric rail_fast ship" speed="20.83" length="43.14" width="3.75" shape="981.00,318.52 971.97,326.95,0.03 963.01,336.30,0.07 955.61,344.57,0.10 951.28,349.74,0.12"/>
  </edge>
  <edge id=":0_1" function="internal">
    <lane id=":0_1_0" index="0" disallow="pedestrian tram rail_urban rail rail_electric rail_fast ship" speed="22.22" length="43.33" width="3.75" shape="981.00,318.52 948.01,346.62"/>
    <lane id=":0_1_1" index="1" disallow="pedestrian tram rail_urban rail rail_electric rail_fast ship" speed="22.22" length="43.33" width="3.75" shape="978.57,315.67 945.58,343.77"/>
    <lane id=":0_1_2" index="2" disallow="pedestrian tram rail_urban rail rail_electric rail_fast ship" speed="22.22" length="43.33" width="3.75" shape="976.13,312.81 943.15,340.91"/>
  </edge>
  <edge id=":1_0" function="internal">
    <lane id=":1_0_0" index="0" disallow="pedestrian tram rail_urban rail rail_electric rail_fast ship" speed="22.22" length="29.84" width="3.75" shape="173.27,892.32 181.88,886.87,0.03 188.44,881.68,0.05 193.22,877.17,0.07 196.48,873.77,0.08"/>
  </edge>
  <edge id=":1_1" function="internal">
    <lane id=":1_1_0" index="0" disallow="pedestrian tram rail_urban rail rail_electric rail_fast ship" speed="22.22" length="30.01" width="3.75" shape="173.27,892.32 199.41,877.61"/>
    <lane id=":1_1_1" index="1" disallow="pedestrian tram rail_urban rail rail_electric rail_fast ship" speed="22.22" length="30.01" width="3.75" shape="175.10,895.59 201.26,880.88"/>
    <lane id=":1_1_2" index="2" disallow="pedestrian tram rail_urban rail rail_electric rail_fast ship" speed="22.22" length="30.01" width="3.75" shape="176.94,898.87 203.11,884.14"/>
  </edge>
  <edge id=":14.13_0" function="internal">
    <lane id=":14.13_0_0" index="0" disallow="pedestrian tram rail_urban rail rail_electric rail_fast ship" speed="22.22" length="0.30" width="3.75" shape="462.98,495.92,20.00 462.79,495.69,20.00"/>
    <lane id=":14.13_0_1" index="1" disallow="pedestrian tram rail_urban rail rail_electric rail_fast ship" speed="22.22" length="0.30" width="3.75" shape="465.90,493.56,20.00 465.71,493.33,20.00"/>
    <lane id=":14.13_0_2" index="2" disallow="pedestrian tram rail_urban rail rail_electric rail_fast ship" speed="22.22" length="0.30" width="3.75" shape="468.81,491.21,20.00 468.62,490.97,20.00"/>
  </edge>
  <edge id=":17.16_0" function="internal">
    <lane id=":17.16_0_0" index="0" disallow="pedestrian tram rail_urban rail rail_electric rail_fast ship" speed="19.44" length="0.30" width="3.75" shape="828.23,702.74,9.15 828.22,703.04,9.16"/>
  </edge>
  <edge id=":19.18_0" function="internal">
    <lane id=":19.18_0_0" index="0" disallow="pedestrian tram rail_urban rail rail_electric rail_fast ship" speed="13.89" length="0.28" width="3.75" shape="774.54,661.70,10.01 774.58,661.42,9.98"/>
  </edge>
  <edge id=":2_0" function="internal">
    <lane id=":2_0_0" index="0" disallow="pedestrian tram rail_urban rail rail_electric rail_fast ship" speed="18.06" length="24.23" width="3.75" shape="668.40,735.58,20.00 673.47,741.92,20.00 678.21,746.50,20.00 682.52,749.58,20.00 686.33,751.39,20.00"/>
  </edge>
  <edge id=":2_1" function="internal">
    <lane id=":2_1_0" index="0" disallow="pedestrian tram rail_urban rail rail_electric rail_fast ship" speed="22.22" length="24.90" width="3.75" shape="668.40,735.58,20.00 682.86,755.86,20.00"/>
    <lane id=":2_1_1" index="1" disallow="pedestrian tram rail_urban rail rail_electric rail_fast ship" speed="22.22" length="24.90" width="3.75" shape="665.35,737.76,20.00 679.81,758.03,20.00"/>
    <lane id=":2_1_2" index="2" disallow="pedestrian tram rail_urban rail rail_electric rail_fast ship" speed="22.22" length="24.90" width="3.75" shape="662.30,739.94,20.00 676.76,760.21,20.00"/>
  </edge>
  <edge id=":21.20_0" function="internal">
    <lane id=":21.20_0_0" index="0" disallow="pedestrian tram rail_urban rail rail_electric rail_fast ship" speed="22.22" length="0.30" width="3.75" shape="376.65,515.00,14.04 376.73,514.72,14.06"/>
  </edge>
  <edge id=":23.22_0" function="internal">
    <lane id=":23.22_0_0" index="0" disallow="pedestrian tram rail_urban rail rail_electric rail_fast ship" speed="9.72" length="0.29" width="3.75" shape="242.69,837.18,10.14 242.64,836.89,10.14"/>
  </edge>
  <edge id=":3_0" function="internal">
    <lane id=":3_0_0" index="0" disallow="pedestrian tram rail_urban rail rail_electric rail_fast ship" speed="15.97" length="20.32" width="3.75" shape="986.89,1228.75,20.00 982.68,1223.60,20.00 978.67,1220.13,20.00 974.93,1217.73,20.00 971.50,1215.83,19.99"/>
  </edge>
  <edge id=":3_1" function="internal">
    <lane id=":3_1_0" index="0" disallow="pedestrian tram rail_urban rail rail_electric rail_fast ship" speed="22.22" length="20.57" width="3.75" shape="986.89,1228.75,20.00 975.13,1211.87,20.00"/>
    <lane id=":3_1_1" index="1" disallow="pedestrian tram rail_urban rail rail_electric rail_fast ship" speed="22.22" length="20.57" width="3.75" shape="989.97,1226.60,20.00 978.21,1209.73,20.00"/>
    <lane id=":3_1_2" index="2" disallow="pedestrian tram rail_urban rail rail_electric rail_fast ship" speed="22.22" length="20.57" width="3.75" shape="993.04,1224.46,20.00 981.29,1207.58,20.00"/>
  </edge>
  <edge id=":3.2_0" function="internal">
    <lane id=":3.2_0_0" index="0" disallow="pedestrian tram rail_urban rail rail_electric rail_fast ship" speed="22.22" length="0.30" width="3.75" shape="485.50,725.54 485.26,725.72"/>
    <lane id=":3.2_0_1" index="1" disallow="pedestrian tram rail_urban rail rail_electric rail_fast ship" speed="22.22" length="0.30" width="3.75" shape="483.29,722.51 483.05,722.68"/>
    <lane id=":3.2_0_2" index="2" disallow="pedestrian tram rail_urban rail rail_electric rail_fast ship" speed="22.22" length="0.30" width="3.75" shape="481.09,719.47 480.85,719.65"/>
  </edge>
  <edge id=":4_0" function="internal">
    <lane id=":4_0_0" index="0" disallow="pedestrian tram rail_urban rail rail_electric rail_fast ship" speed="20.83" length="86.23" width="3.75" shape="929.14,1098.79,20.00 936.12,1110.32,20.00 949.74,1132.34,20.00 964.52,1155.84,20.00 974.96,1171.83,20.00"/>
  </edge>
  <edge id=":4_1" function="internal">
    <lane id=":4_1_0" index="0" disallow="pedestrian tram rail_urban rail rail_electric rail_fast ship" speed="22.22" length="85.96" width="3.75" shape="925.81,1101.31,20.00 974.96,1171.83,20.00"/>
    <lane id=":4_1_1" index="1" disallow="pedestrian tram rail_urban rail rail_electric rail_fast ship" speed="22.22" length="85.96" width="3.75" shape="922.73,1103.46,20.00 971.88,1173.98,20.00"/>
    <lane id=":4_1_2" index="2" disallow="pedestrian tram rail_urban rail rail_electric rail_fast ship" speed="22.22" length="85.96" width="3.75" shape="919.66,1105.60,20.00 968.80,1176.12,20.00"/>
  </edge>
  <edge id=":5_0" function="internal">
    <lane id=":5_0_0" index="0" disallow="pedestrian tram rail_urban rail rail_electric rail_fast ship" speed="18.06" length="26.16" width="3.75" shape="715.94,550.98 711.56,551.54 706.05,553.24 699.61,556.46 692.45,561.55"/>
  </edge>
  <edge id=":5_1" function="internal">
    <lane id=":5_1_0" index="0" disallow="pedestrian tram rail_urban rail rail_electric rail_fast ship" speed="22.22" length="24.60" width="3.75" shape="711.42,545.87 692.45,561.55"/>
    <lane id=":5_1_1" index="1" disallow="pedestrian tram rail_urban rail rail_electric rail_fast ship" speed="22.22" length="24.60" width="3.75" shape="709.02,542.98 690.07,558.66"/>
    <lane id=":5_1_2" index="2" disallow="pedestrian tram rail_urban rail rail_electric rail_fast ship" speed="22.22" length="24.60" width="3.75" shape="706.63,540.09 687.68,555.76"/>
  </edge>
  <edge id=":6_0" function="internal">
    <lane id=":6_0_0" index="0" disallow="pedestrian tram rail_urban rail rail_electric rail_fast ship" speed="22.22" length="50.96" width="3.75" shape="360.20,385.98,20.00 355.67,379.43,20.00 347.43,368.39,20.00 337.74,356.11,20.00 328.84,345.85,20.00"/>
  </edge>
  <edge id=":6_1" function="internal">
    <lane id=":6_1_0" index="0" disallow="pedestrian tram rail_urban rail rail_electric rail_fast ship" speed="22.22" length="50.46" width="3.75" shape="363.39,382.58,20.00 328.84,345.85,20.00"/>
    <lane id=":6_1_1" index="1" disallow="pedestrian tram rail_urban rail rail_electric rail_fast ship" speed="22.22" length="50.46" width="3.75" shape="366.13,380.03,20.00 331.56,343.27,20.00"/>
    <lane id=":6_1_2" index="2" disallow="pedestrian tram rail_urban rail rail_electric rail_fast ship" speed="22.22" length="50.46" width="3.75" shape="368.88,377.47,20.00 334.28,340.68,20.00"/>
  </edge>
  <edge id=":6.5_0" function="internal">
    <lane id=":6.5_0_0" index="0" disallow="pedestrian tram rail_urban rail rail_electric rail_fast ship" speed="22.22" length="0.30" width="3.75" shape="471.88,707.31 472.12,707.14"/>
    <lane id=":6.5_0_1" index="1" disallow="pedestrian tram rail_urban rail rail_electric rail_fast ship" speed="22.22" length="0.30" width="3.75" shape="474.08,710.35 474.33,710.17"/>
    <lane id=":6.5_0_2" index="2" disallow="pedestrian tram rail_urban rail rail_electric rail_fast ship" speed="22.22" length="0.30" width="3.75" shape="476.29,713.38 476.53,713.20"/>
  </edge>
  <edge id=":7_0" function="internal">
    <lane id=":7_0_0" index="0" disallow="pedestrian tram rail_urban rail rail_electric rail_fast ship" speed="15.97" length="53.52" width="3.75" shape="819.40,419.96,0.05 826.43,415.43,0.04 838.54,407.17,0.03 851.98,397.56,0.01 863.01,388.98"/>
  </edge>
  <edge id=":7_1" function="internal">
    <lane id=":7_1_0" index="0" disallow="pedestrian tram rail_urban rail rail_electric rail_fast ship" speed="22.22" length="53.05" width="3.75" shape="822.50,423.23 863.01,388.98"/>
    <lane id=":7_1_1" index="1" disallow="pedestrian tram rail_urban rail rail_electric rail_fast ship" speed="22.22" length="53.05" width="3.75" shape="824.92,426.10 865.43,391.84"/>
    <lane id=":7_1_2" index="2" disallow="pedestrian tram rail_urban rail rail_electric rail_fast ship" speed="22.22" length="53.05" width="3.75" shape="827.34,428.96 867.86,394.70"/>
  </edge>
  <edge id=":9.8_0" function="internal">
    <lane id=":9.8_0_0" index="0" disallow="pedestrian tram rail_urban rail rail_electric rail_fast ship" speed="22.22" length="0.30" width="3.75" shape="480.49,481.39,20.00 480.68,481.63,20.00"/>
    <lane id=":9.8_0_1" index="1" disallow="pedestrian tram rail_urban rail rail_electric rail_fast ship" speed="22.22" length="0.30" width="3.75" shape="477.57,483.75,20.00 477.76,483.98,20.00"/>
    <lane id=":9.8_0_2" index="2" disallow="pedestrian tram rail_urban rail rail_electric rail_fast ship" speed="22.22" length="0.30" width="3.75" shape="474.65,486.11,20.00 474.84,486.34,20.00"/>
  </edge>
  <edge id="-0" from="0.begin" to="0" priority="1" type="driving" shape="1102.73,202.87 1101.95,203.53 1101.14,204.19 1100.31,204.88 1099.46,205.59 1098.59,206.31 1097.70,207.05 1096.79,207.81 1095.87,208.59 1094.92,209.38 1093.95,210.19 1092.96,211.02 1091.95,211.87 1090.93,212.73 1089.88,213.61 1088.82,214.50 1087.73,215.41 1086.63,216.34 1085.51,217.29 1084.37,218.25 1083.21,219.23 1082.03,220.22 1080.83,221.23 1079.62,222.26 1078.39,223.30 1077.14,224.35 1075.87,225.43 1074.59,226.51 1073.29,227.62 1071.97,228.74 1070.63,229.87 1069.27,231.02 1067.90,232.18 1066.51,233.36 1065.11,234.55 1063.69,235.76 1062.25,236.98 1060.79,238.22 1059.32,239.47 1057.84,240.73 1056.33,242.01 1054.81,243.30 1053.28,244.61 1051.73,245.92 1050.16,247.26 1048.58,248.60 1046.98,249.96 1045.37,251.34 1043.74,252.72 1042.10,254.12 1040.44,255.53 1038.77,256.96 1037.08,258.39 1035.38,259.84 1033.66,261.31 1031.93,262.78 1030.19,264.27 1028.43,265.77 1026.66,267.28 1024.87,268.80 1023.07,270.33 1021.26,271.88 1019.43,273.44 1017.59,275.00 1015.74,276.58 1013.87,278.18 1011.99,279.78 1010.10,281.39 1008.19,283.02 1006.28,284.65 1004.35,286.30 1002.40,287.95 1000.45,289.62 998.48,291.30 996.50,292.98 994.51,294.68 992.51,296.39 990.50,298.11 988.47,299.83 986.43,301.57 984.39,303.32 982.33,305.07 980.26,306.84 978.17,308.61 976.08,310.39 973.98,312.19 971.87,313.99">
    <lane id="-0_0" index="0" disallow="pedestrian tram rail_urban rail rail_electric rail_fast ship" speed="22.22" length="167.59" width="3.75" shape="1108.71,210.10 1107.93,210.74 1107.12,211.41 1106.30,212.09 1105.46,212.79 1104.59,213.51 1103.71,214.25 1102.80,215.01 1101.88,215.78 1100.93,216.57 1099.97,217.38 1098.98,218.20 1097.98,219.05 1096.96,219.91 1095.91,220.78 1094.85,221.68 1093.77,222.59 1092.67,223.51 1091.55,224.46 1090.41,225.42 1089.25,226.39 1088.08,227.38 1086.88,228.39 1085.67,229.42 1084.44,230.46 1083.20,231.51 1081.93,232.58 1080.65,233.67 1079.35,234.77 1078.03,235.89 1076.69,237.02 1075.34,238.17 1073.97,239.33 1072.58,240.51 1071.18,241.70 1069.76,242.90 1068.32,244.13 1066.86,245.36 1065.39,246.61 1063.91,247.87 1062.40,249.15 1060.89,250.44 1059.35,251.75 1057.80,253.07 1056.24,254.40 1054.65,255.74 1053.06,257.10 1051.45,258.47 1049.82,259.86 1048.18,261.26 1046.52,262.67 1044.85,264.09 1043.16,265.53 1041.46,266.98 1039.74,268.44 1038.01,269.92 1036.27,271.40 1034.51,272.90 1032.74,274.41 1030.95,275.93 1029.15,277.47 1027.34,279.01 1025.51,280.57 1023.67,282.14 1021.82,283.72 1019.95,285.31 1018.07,286.91 1016.18,288.53 1014.28,290.15 1012.36,291.79 1010.43,293.43 1008.49,295.09 1006.53,296.75 1004.56,298.43 1002.59,300.12 1000.60,301.82 998.59,303.52 996.58,305.24 994.55,306.97 992.52,308.70 990.47,310.45 988.41,312.21 986.34,313.97 984.26,315.75 982.16,317.53 981.00,318.52" type="driving"/>
    <lane id="-0_1" index="1" disallow="pedestrian tram rail_urban rail rail_electric rail_fast ship" speed="22.22" length="167.59" width="3.75" shape="1106.32,207.21 1105.53,207.86 1104.73,208.52 1103.90,209.21 1103.06,209.91 1102.19,210.63 1101.31,211.37 1100.40,212.13 1099.47,212.90 1098.53,213.69 1097.56,214.50 1096.57,215.33 1095.57,216.17 1094.54,217.03 1093.50,217.91 1092.44,218.81 1091.35,219.72 1090.25,220.64 1089.13,221.59 1087.99,222.55 1086.83,223.53 1085.66,224.52 1084.46,225.53 1083.25,226.55 1082.02,227.59 1080.77,228.65 1079.51,229.72 1078.22,230.81 1076.92,231.91 1075.60,233.03 1074.27,234.16 1072.91,235.31 1071.54,236.47 1070.15,237.65 1068.75,238.84 1067.33,240.05 1065.89,241.27 1064.44,242.50 1062.97,243.75 1061.48,245.02 1059.98,246.29 1058.46,247.59 1056.92,248.89 1055.37,250.21 1053.81,251.54 1052.22,252.89 1050.63,254.25 1049.01,255.62 1047.39,257.01 1045.74,258.40 1044.09,259.82 1042.41,261.24 1040.73,262.68 1039.03,264.13 1037.31,265.59 1035.58,267.06 1033.84,268.55 1032.08,270.05 1030.31,271.56 1028.52,273.08 1026.72,274.61 1024.91,276.16 1023.08,277.72 1021.24,279.29 1019.39,280.87 1017.52,282.46 1015.64,284.06 1013.75,285.67 1011.84,287.30 1009.93,288.93 1008.00,290.58 1006.05,292.23 1004.10,293.90 1002.13,295.58 1000.15,297.26 998.16,298.96 996.16,300.67 994.15,302.39 992.12,304.11 990.08,305.85 988.03,307.60 985.97,309.35 983.90,311.12 981.82,312.89 979.73,314.67 978.57,315.67" type="driving"/>
    <lane id="-0_2" index="2" disallow="pedestrian tram rail_urban rail rail_electric rail_fast ship" speed="22.22" length="167.59" width="3.75" shape="1103.93,204.32 1103.14,204.97 1102.34,205.64 1101.51,206.32 1100.66,207.03 1099.79,207.75 1098.90,208.49 1098.00,209.25 1097.07,210.03 1096.12,210.82 1095.15,211.63 1094.17,212.46 1093.16,213.30 1092.13,214.16 1091.09,215.04 1090.02,215.94 1088.94,216.85 1087.84,217.78 1086.71,218.72 1085.57,219.68 1084.42,220.66 1083.24,221.65 1082.04,222.66 1080.83,223.69 1079.60,224.73 1078.35,225.79 1077.08,226.86 1075.80,227.95 1074.50,229.05 1073.18,230.17 1071.84,231.30 1070.49,232.45 1069.12,233.61 1067.73,234.79 1066.32,235.98 1064.90,237.19 1063.46,238.41 1062.01,239.64 1060.54,240.89 1059.05,242.16 1057.55,243.44 1056.03,244.73 1054.49,246.03 1052.94,247.35 1051.38,248.69 1049.79,250.03 1048.20,251.39 1046.58,252.76 1044.96,254.15 1043.31,255.55 1041.66,256.96 1039.98,258.38 1038.30,259.82 1036.59,261.27 1034.88,262.73 1033.15,264.21 1031.40,265.69 1029.65,267.19 1027.87,268.70 1026.09,270.23 1024.29,271.76 1022.47,273.31 1020.65,274.86 1018.81,276.43 1016.95,278.01 1015.09,279.60 1013.21,281.21 1011.32,282.82 1009.41,284.44 1007.49,286.08 1005.56,287.72 1003.62,289.38 1001.67,291.05 999.70,292.72 997.72,294.41 995.73,296.11 993.73,297.82 991.71,299.53 989.69,301.26 987.65,303.00 985.60,304.74 983.54,306.50 981.47,308.26 979.39,310.04 977.30,311.82 976.13,312.81" type="driving"/>
  </edge>
  <edge id="-1" from="0" to="5" priority="1" type="driving" shape="971.87,313.99 970.55,315.11 969.22,316.24 967.89,317.37 966.56,318.51 965.23,319.64 963.89,320.79 962.54,321.93 961.20,323.08 959.85,324.23 958.49,325.38 957.13,326.54 955.77,327.70 954.41,328.86 953.04,330.03 951.66,331.20 950.29,332.37 948.91,333.55 947.52,334.72 946.13,335.91 944.74,337.09 943.35,338.28 941.95,339.47 940.55,340.66 939.15,341.85 937.74,343.05 936.33,344.25 934.91,345.46 933.49,346.66 932.07,347.87 930.65,349.08 929.22,350.30 927.79,351.51 926.36,352.73 924.92,353.96 923.48,355.18 922.04,356.41 920.59,357.64 919.15,358.87 917.69,360.10 916.24,361.34 914.78,362.58 913.32,363.82 911.86,365.06 910.39,366.31 908.92,367.55 907.45,368.80 905.98,370.06 904.50,371.31 903.02,372.57 901.54,373.82 900.06,375.08 898.57,376.35 897.08,377.61 895.59,378.88 894.09,380.15 892.60,381.42 891.10,382.69 889.59,383.96 888.09,385.24 886.58,386.52 885.08,387.80 883.56,389.08 882.05,390.36 880.54,391.65 879.02,392.93 877.50,394.22 875.98,395.51 874.45,396.80 872.93,398.10 871.40,399.39 869.87,400.69 868.34,401.98 866.80,403.28 865.26,404.58 863.73,405.89 862.19,407.19 860.65,408.49 859.10,409.80 857.56,411.11 856.01,412.42 854.46,413.73 852.91,415.04 851.36,416.35 849.81,417.66 848.25,418.98 846.69,420.29 845.13,421.61 843.57,422.93 842.01,424.25 840.45,425.57 838.89,426.89 837.32,428.21 835.75,429.54 834.18,430.86 832.62,432.18 831.04,433.51 829.47,434.84 827.90,436.16 826.32,437.49 824.75,438.82 823.17,440.15 821.59,441.48 820.01,442.81 818.43,444.14 816.85,445.48 815.27,446.81 813.69,448.14 812.10,449.48 810.52,450.81 808.93,452.15 807.34,453.48 805.76,454.82 804.17,456.16 802.58,457.49 800.99,458.83 799.40,460.17 797.81,461.50 796.22,462.84 794.62,464.18 793.03,465.52 791.44,466.86 789.84,468.20 788.25,469.54 786.65,470.88 785.06,472.22 783.46,473.56 781.86,474.89 780.27,476.23 778.67,477.57 777.07,478.91 775.47,480.25 773.88,481.59 772.28,482.93 770.68,484.27 769.08,485.61 767.48,486.95 765.88,488.29 764.29,489.62 762.69,490.96 761.09,492.30 759.49,493.64 757.89,494.97 756.29,496.31 754.69,497.65 753.09,498.98 751.50,500.32 749.90,501.65 748.30,502.99 746.70,504.32 745.11,505.65 743.51,506.99 741.91,508.32 740.32,509.65 738.72,510.98 737.12,512.31 735.53,513.64 733.93,514.97 732.34,516.29 730.75,517.62 729.15,518.95 727.56,520.27 725.97,521.60 724.38,522.92 722.79,524.24 721.20,525.56 719.61,526.88 718.02,528.20 716.43,529.52 714.85,530.84 713.26,532.16 711.68,533.47 710.09,534.78 708.51,536.10 706.93,537.41 705.35,538.72 703.77,540.03 702.19,541.34 700.61,542.64 699.03,543.95 697.46,545.25 695.88,546.55 694.31,547.85 692.74,549.15 691.17,550.45 689.60,551.75">
    <lane id="-1_0" index="0" disallow="pedestrian tram rail_urban rail rail_electric rail_fast ship" speed="22.22" length="309.27" width="3.75" shape="948.01,346.62 946.63,347.80 945.22,348.99 943.81,350.19 942.40,351.39 940.99,352.60 939.57,353.80 938.15,355.01 936.72,356.22 935.30,357.44 933.87,358.66 932.43,359.88 931.00,361.10 929.56,362.32 928.11,363.55 926.67,364.78 925.22,366.01 923.77,367.24 922.31,368.48 920.85,369.72 919.39,370.96 917.93,372.20 916.46,373.45 914.99,374.70 913.52,375.95 912.05,377.20 910.57,378.46 909.09,379.71 907.61,380.97 906.12,382.23 904.64,383.49 903.15,384.76 901.65,386.03 900.16,387.29 898.66,388.57 897.16,389.84 895.66,391.11 894.16,392.39 892.65,393.67 891.14,394.95 889.63,396.23 888.11,397.51 886.60,398.80 885.08,400.08 883.56,401.37 882.04,402.66 880.51,403.95 878.99,405.25 877.46,406.54 875.93,407.84 874.39,409.14 872.86,410.44 871.32,411.74 869.78,413.04 868.24,414.34 866.70,415.65 865.16,416.96 863.61,418.26 862.06,419.57 860.52,420.88 858.96,422.20 857.41,423.51 855.86,424.82 854.30,426.14 852.74,427.45 851.19,428.77 849.63,430.09 848.06,431.41 846.50,432.73 844.94,434.05 843.37,435.37 841.80,436.70 840.23,438.02 838.66,439.35 837.09,440.67 835.52,442.00 833.94,443.33 832.37,444.66 830.79,445.99 829.21,447.32 827.64,448.65 826.06,449.98 824.47,451.31 822.89,452.65 821.31,453.98 819.73,455.31 818.14,456.65 816.56,457.98 814.97,459.32 813.38,460.66 811.79,461.99 810.20,463.33 808.61,464.67 807.02,466.00 805.43,467.34 803.84,468.68 802.25,470.02 800.65,471.36 799.06,472.70 797.47,474.04 795.87,475.38 794.28,476.72 792.68,478.06 791.08,479.40 789.49,480.74 787.89,482.08 786.29,483.42 784.69,484.76 783.10,486.10 781.50,487.44 779.90,488.78 778.30,490.12 776.70,491.46 775.10,492.80 773.50,494.14 771.90,495.47 770.30,496.81 768.70,498.15 767.10,499.49 765.50,500.83 763.90,502.17 762.30,503.50 760.70,504.84 759.11,506.18 757.51,507.51 755.91,508.85 754.31,510.18 752.71,511.52 751.11,512.85 749.51,514.18 747.92,515.52 746.32,516.85 744.72,518.18 743.13,519.51 741.53,520.84 739.93,522.17 738.34,523.50 736.74,524.83 735.15,526.15 733.56,527.48 731.96,528.80 730.37,530.13 728.78,531.45 727.19,532.77 725.60,534.10 724.01,535.42 722.42,536.73 720.83,538.05 719.25,539.37 717.66,540.69 716.08,542.00 714.49,543.31 712.91,544.63 711.42,545.87" type="driving"/>
    <lane id="-1_1" index="1" disallow="pedestrian tram rail_urban rail rail_electric rail_fast ship" speed="22.22" length="309.27" width="3.75" shape="945.58,343.77 944.20,344.94 942.79,346.14 941.38,347.34 939.97,348.54 938.56,349.74 937.14,350.95 935.72,352.16 934.29,353.37 932.87,354.58 931.44,355.80 930.00,357.02 928.57,358.24 927.13,359.47 925.68,360.69 924.24,361.92 922.79,363.15 921.34,364.39 919.88,365.62 918.42,366.86 916.96,368.10 915.50,369.35 914.04,370.59 912.57,371.84 911.09,373.09 909.62,374.34 908.14,375.60 906.66,376.85 905.18,378.11 903.70,379.37 902.21,380.64 900.72,381.90 899.23,383.17 897.73,384.44 896.24,385.71 894.74,386.98 893.23,388.25 891.73,389.53 890.22,390.81 888.71,392.09 887.20,393.37 885.69,394.65 884.17,395.94 882.65,397.22 881.13,398.51 879.61,399.80 878.09,401.09 876.56,402.39 875.03,403.68 873.50,404.98 871.97,406.28 870.44,407.58 868.90,408.88 867.36,410.18 865.82,411.48 864.28,412.79 862.74,414.09 861.19,415.40 859.64,416.71 858.09,418.02 856.54,419.33 854.99,420.64 853.44,421.96 851.88,423.27 850.32,424.59 848.77,425.91 847.20,427.23 845.64,428.55 844.08,429.87 842.52,431.19 840.95,432.51 839.38,433.83 837.81,435.16 836.24,436.48 834.67,437.81 833.10,439.14 831.53,440.46 829.95,441.79 828.37,443.12 826.80,444.45 825.22,445.78 823.64,447.11 822.06,448.45 820.48,449.78 818.89,451.11 817.31,452.45 815.73,453.78 814.14,455.12 812.55,456.45 810.97,457.79 809.38,459.12 807.79,460.46 806.20,461.80 804.61,463.13 803.02,464.47 801.43,465.81 799.84,467.15 798.24,468.49 796.65,469.83 795.05,471.17 793.46,472.51 791.86,473.84 790.27,475.18 788.67,476.52 787.08,477.86 785.48,479.20 783.88,480.54 782.28,481.88 780.69,483.22 779.09,484.56 777.49,485.90 775.89,487.24 774.29,488.58 772.69,489.92 771.09,491.26 769.50,492.60 767.90,493.94 766.30,495.28 764.70,496.61 763.10,497.95 761.50,499.29 759.90,500.63 758.30,501.96 756.70,503.30 755.10,504.63 753.50,505.97 751.91,507.30 750.31,508.64 748.71,509.97 747.11,511.31 745.51,512.64 743.92,513.97 742.32,515.30 740.72,516.63 739.13,517.96 737.53,519.29 735.94,520.62 734.35,521.94 732.75,523.27 731.16,524.60 729.57,525.92 727.97,527.25 726.38,528.57 724.79,529.89 723.20,531.21 721.61,532.53 720.03,533.85 718.44,535.17 716.85,536.48 715.27,537.80 713.68,539.11 712.10,540.43 710.52,541.74 709.02,542.98" type="driving"/>
    <lane id="-1_2" index="2" disallow="pedestrian tram rail_urban rail rail_electric rail_fast ship" speed="22.22" length="309.27" width="3.75" shape="943.15,340.91 941.77,342.09 940.36,343.28 938.95,344.48 937.54,345.68 936.13,346.89 934.71,348.09 933.29,349.30 931.86,350.51 930.44,351.73 929.01,352.94 927.57,354.16 926.14,355.38 924.70,356.61 923.25,357.84 921.81,359.06 920.36,360.30 918.91,361.53 917.45,362.77 916.00,364.01 914.54,365.25 913.07,366.49 911.61,367.73 910.14,368.98 908.67,370.23 907.19,371.48 905.72,372.74 904.24,374.00 902.75,375.25 901.27,376.51 899.78,377.78 898.29,379.04 896.80,380.31 895.31,381.58 893.81,382.85 892.31,384.12 890.81,385.39 889.30,386.67 887.80,387.95 886.29,389.23 884.78,390.51 883.26,391.79 881.75,393.08 880.23,394.36 878.71,395.65 877.19,396.94 875.66,398.23 874.14,399.53 872.61,400.82 871.08,402.12 869.55,403.41 868.01,404.71 866.48,406.01 864.94,407.32 863.40,408.62 861.86,409.92 860.31,411.23 858.77,412.54 857.22,413.85 855.67,415.16 854.12,416.47 852.57,417.78 851.02,419.10 849.46,420.41 847.90,421.73 846.34,423.04 844.78,424.36 843.22,425.68 841.66,427.00 840.10,428.32 838.53,429.64 836.96,430.97 835.39,432.29 833.82,433.62 832.25,434.94 830.68,436.27 829.11,437.60 827.53,438.93 825.96,440.25 824.38,441.58 822.80,442.91 821.22,444.25 819.64,445.58 818.06,446.91 816.48,448.24 814.89,449.58 813.31,450.91 811.73,452.25 810.14,453.58 808.55,454.92 806.96,456.25 805.38,457.59 803.79,458.93 802.20,460.26 800.61,461.60 799.01,462.94 797.42,464.28 795.83,465.62 794.24,466.96 792.64,468.29 791.05,469.63 789.45,470.97 787.86,472.31 786.26,473.65 784.67,474.99 783.07,476.33 781.47,477.67 779.87,479.01 778.28,480.35 776.68,481.69 775.08,483.03 773.48,484.37 771.88,485.71 770.29,487.05 768.69,488.39 767.09,489.72 765.49,491.06 763.89,492.40 762.29,493.74 760.69,495.08 759.09,496.41 757.49,497.75 755.90,499.09 754.30,500.42 752.70,501.76 751.10,503.09 749.50,504.43 747.90,505.76 746.31,507.09 744.71,508.43 743.11,509.76 741.52,511.09 739.92,512.42 738.32,513.75 736.73,515.08 735.13,516.41 733.54,517.74 731.95,519.06 730.35,520.39 728.76,521.71 727.17,523.04 725.58,524.36 723.99,525.68 722.40,527.01 720.81,528.33 719.22,529.65 717.63,530.96 716.04,532.28 714.46,533.60 712.87,534.91 711.29,536.23 709.71,537.54 708.12,538.85 706.63,540.09" type="driving"/>