<?xml version='1.0' encoding='UTF-8'?>
<!-- generated on 2022-09-05 19:07:20 by Eclipse SUMO netconvert Version 1.13.0
<configuration xmlns:xsi="http://www.w3.org/2001/XMLSchema-instance" xsi:noNamespaceSchemaLocation="http://sumo.dlr.de/xsd/netconvertConfiguration.xsd">

    <input>
        <opendrive-files value="map\classification\4\52356126\52356126.xodr"/>
    </input>

    <output>
        <output-file value="C:\Users\LinGe\AppData\Local\Temp\tmpq3tv1ti5\52356126.net.xml"/>
    </output>

    <processing>
        <geometry.max-grade.fix value="false"/>
    </processing>

    <tls_building>
        <tls.left-green.time value="0"/>
    </tls_building>

    <junctions>
        <rectangular-lane-cut value="true"/>
    </junctions>

    <report>
        <aggregate-warnings value="5"/>
    </report>

</configuration>
-->
<net xmlns:xsi="http://www.w3.org/2001/XMLSchema-instance" version="1.9" junctionCornerDetail="5" rectangularLaneCut="true" limitTurnSpeed="5.50" xsi:noNamespaceSchemaLocation="http://sumo.dlr.de/xsd/net_file.xsd">
  <location netOffset="12.96,261.56" convBoundary="0.00,0.00,1114.14,1504.25" origBoundary="-12.96,-261.56,1101.18,1242.68" projParameter="!"/>
  <type id="bidirectional" priority="1" speed="1.39" disallow="pedestrian tram rail_urban rail rail_electric rail_fast ship" width="3.65"/>
  <type id="border" priority="0" speed="1.39" disallow="all" discard="1" width="0.10"/>
  <type id="driving" priority="1" speed="13.89" disallow="pedestrian tram rail_urban rail rail_electric rail_fast ship" width="3.65"/>
  <type id="entry" priority="1" speed="22.22" disallow="pedestrian tram rail_urban rail rail_electric rail_fast ship" width="3.65"/>
  <type id="exit" priority="1" speed="22.22" disallow="pedestrian tram rail_urban rail rail_electric rail_fast ship" width="3.65"/>
  <type id="median" priority="0" speed="1.39" disallow="all" discard="1" width="0.10"/>
  <type id="mwyEntry" priority="1" speed="22.22" allow="private emergency authority army vip passenger hov taxi bus coach delivery truck trailer motorcycle evehicle custom1 custom2" width="3.65"/>
  <type id="mwyExit" priority="1" speed="22.22" allow="private emergency authority army vip passenger hov taxi bus coach delivery truck trailer motorcycle evehicle custom1 custom2" width="3.65"/>
  <type id="none" priority="0" speed="1.39" disallow="all" discard="1" width="1.00"/>
  <type id="offRamp" priority="1" speed="22.22" allow="private emergency authority army vip passenger hov taxi bus coach delivery truck trailer motorcycle evehicle custom1 custom2" width="3.65"/>
  <type id="onRamp" priority="1" speed="22.22" allow="private emergency authority army vip passenger hov taxi bus coach delivery truck trailer motorcycle evehicle custom1 custom2" width="3.65"/>
  <type id="parking" priority="1" speed="1.39" disallow="pedestrian tram rail_urban rail rail_electric rail_fast ship" width="2.50"/>
  <type id="rail" priority="3" speed="33.33" allow="rail_urban rail rail_electric rail_fast" width="3.65"/>
  <type id="restricted" priority="0" speed="13.89" disallow="all" width="3.65"/>
  <type id="roadWorks" priority="0" speed="1.39" allow="authority" width="3.65"/>
  <type id="shoulder" priority="0" speed="1.39" disallow="all" discard="1" width="1.00"/>
  <type id="special1" priority="1" speed="22.22" allow="custom1" discard="1" width="3.65"/>
  <type id="special2" priority="1" speed="22.22" allow="custom2" discard="1" width="3.65"/>
  <type id="special3" priority="1" speed="22.22" allow="custom1 custom2" discard="1" width="3.65"/>
  <type id="stop" priority="1" speed="13.89" disallow="pedestrian tram rail_urban rail rail_electric rail_fast ship" width="3.65"/>
  <type id="tram" priority="2" speed="13.89" allow="tram" width="3.65"/>
  <edge id=":0_0" function="internal">
    <lane id=":0_0_0" index="0" disallow="pedestrian tram rail_urban rail rail_electric rail_fast ship" speed="19.44" length="156.37" width="3.75" shape="983.15,488.48 867.34,593.56"/>
  </edge>
  <edge id=":0_1" function="internal">
    <lane id=":0_1_0" index="0" disallow="pedestrian tram rail_urban rail rail_electric rail_fast ship" speed="22.22" length="156.48" width="3.75" shape="983.15,488.48 864.59,590.64"/>
    <lane id=":0_1_1" index="1" disallow="pedestrian tram rail_urban rail rail_electric rail_fast ship" speed="22.22" length="156.48" width="3.75" shape="980.69,485.65 862.15,587.79"/>
    <lane id=":0_1_2" index="2" disallow="pedestrian tram rail_urban rail rail_electric rail_fast ship" speed="22.22" length="156.48" width="3.75" shape="978.24,482.81 859.71,584.94"/>
  </edge>
  <edge id=":1_0" function="internal">
    <lane id=":1_0_0" index="0" disallow="pedestrian tram rail_urban rail rail_electric rail_fast ship" speed="20.83" length="79.96" width="3.75" shape="491.91,893.30 427.81,941.10,0.16"/>
  </edge>
  <edge id=":1_1" function="internal">
    <lane id=":1_1_0" index="0" disallow="pedestrian tram rail_urban rail rail_electric rail_fast ship" speed="22.22" length="80.28" width="3.75" shape="491.91,893.30 425.01,937.95"/>
    <lane id=":1_1_1" index="1" disallow="pedestrian tram rail_urban rail rail_electric rail_fast ship" speed="22.22" length="80.28" width="3.75" shape="489.76,890.23 422.99,934.79"/>
    <lane id=":1_1_2" index="2" disallow="pedestrian tram rail_urban rail rail_electric rail_fast ship" speed="22.22" length="80.28" width="3.75" shape="487.62,887.15 420.97,931.63"/>
  </edge>
  <edge id=":10_0" function="internal">
    <lane id=":10_0_0" index="0" disallow="pedestrian tram rail_urban rail rail_electric rail_fast ship" speed="11.11" length="3.00" width="3.75" shape="371.33,411.66,14.73 374.33,411.71,14.64"/>
  </edge>
  <edge id=":10_1" function="internal">
    <lane id=":10_1_0" index="0" disallow="pedestrian tram rail_urban rail rail_electric rail_fast ship" speed="15.28" length="3.00" width="3.75" shape="371.33,411.66,14.73 374.33,411.72,14.68"/>
  </edge>
  <edge id=":11_0" function="internal">
    <lane id=":11_0_0" index="0" disallow="pedestrian tram rail_urban rail rail_electric rail_fast ship" speed="19.44" length="66.67" width="3.75" shape="857.21,1224.38,20.00 863.68,1232.55,20.00 875.83,1247.38,20.00 889.39,1263.48,20.00 900.05,1275.45,20.00"/>
  </edge>
  <edge id=":11_1" function="internal">
    <lane id=":11_1_0" index="0" disallow="pedestrian tram rail_urban rail rail_electric rail_fast ship" speed="22.22" length="66.31" width="3.75" shape="854.23,1227.54,20.00 900.05,1275.45,20.00"/>
    <lane id=":11_1_1" index="1" disallow="pedestrian tram rail_urban rail rail_electric rail_fast ship" speed="22.22" length="66.31" width="3.75" shape="851.52,1230.12,20.00 897.34,1278.05,20.00"/>
    <lane id=":11_1_2" index="2" disallow="pedestrian tram rail_urban rail rail_electric rail_fast ship" speed="22.22" length="66.31" width="3.75" shape="848.80,1232.71,20.00 894.64,1280.64,20.00"/>
  </edge>
  <edge id=":12_0" function="internal">
    <lane id=":12_0_0" index="0" disallow="pedestrian tram rail_urban rail rail_electric rail_fast ship" speed="20.83" length="74.67" width="3.75" shape="635.09,1031.32,19.89 628.09,1021.99,19.91 614.73,1004.61,19.94 600.08,985.86,19.97 589.19,972.43,20.00"/>
  </edge>
  <edge id=":12_1" function="internal">
    <lane id=":12_1_0" index="0" disallow="pedestrian tram rail_urban rail rail_electric rail_fast ship" speed="22.22" length="74.31" width="3.75" shape="638.19,1028.40,20.00 589.19,972.43,20.00"/>
    <lane id=":12_1_1" index="1" disallow="pedestrian tram rail_urban rail rail_electric rail_fast ship" speed="22.22" length="74.31" width="3.75" shape="640.98,1025.91,20.00 592.04,969.99,20.00"/>
    <lane id=":12_1_2" index="2" disallow="pedestrian tram rail_urban rail rail_electric rail_fast ship" speed="22.22" length="74.31" width="3.75" shape="643.78,1023.41,20.00 594.89,967.55,20.00"/>
  </edge>
  <edge id=":13_0" function="internal">
    <lane id=":13_0_0" index="0" disallow="pedestrian tram rail_urban rail rail_electric rail_fast ship" speed="15.28" length="20.81" width="3.75" shape="879.90,537.79,0.00 883.92,537.72,0.00 888.46,536.96,0.00 893.50,534.93,0.00 899.03,531.07"/>
  </edge>
  <edge id=":13_1" function="internal">
    <lane id=":13_1_0" index="0" disallow="pedestrian tram rail_urban rail rail_electric rail_fast ship" speed="22.22" length="18.89" width="3.75" shape="884.72,543.39 899.03,531.07"/>
    <lane id=":13_1_1" index="1" disallow="pedestrian tram rail_urban rail rail_electric rail_fast ship" speed="22.22" length="18.89" width="3.75" shape="887.16,546.23 901.48,533.91"/>
    <lane id=":13_1_2" index="2" disallow="pedestrian tram rail_urban rail rail_electric rail_fast ship" speed="22.22" length="18.89" width="3.75" shape="889.61,549.08 903.93,536.75"/>
  </edge>
  <edge id=":14_0" function="internal">
    <lane id=":14_0_0" index="0" disallow="pedestrian tram rail_urban rail rail_electric rail_fast ship" speed="15.97" length="25.83" width="3.75" shape="173.90,359.13,19.99 174.69,363.45,19.99 176.21,368.93,19.99 178.98,375.44,20.00 183.48,382.86,20.00"/>
  </edge>
  <edge id=":14_1" function="internal">
    <lane id=":14_1_0" index="0" disallow="pedestrian tram rail_urban rail rail_electric rail_fast ship" speed="22.22" length="19.33" width="3.75" shape="172.32,367.08,20.00 183.48,382.86,20.00"/>
    <lane id=":14_1_1" index="1" disallow="pedestrian tram rail_urban rail rail_electric rail_fast ship" speed="22.22" length="19.33" width="3.75" shape="169.26,369.24,20.00 180.42,385.02,20.00"/>
    <lane id=":14_1_2" index="2" disallow="pedestrian tram rail_urban rail rail_electric rail_fast ship" speed="22.22" length="19.33" width="3.75" shape="166.20,371.41,20.00 177.36,387.19,20.00"/>
  </edge>
  <edge id=":14.13_0" function="internal">
    <lane id=":14.13_0_0" index="0" disallow="pedestrian tram rail_urban rail rail_electric rail_fast ship" speed="22.22" length="0.30" width="3.75" shape="573.40,917.93,20.00 573.58,918.16,20.00"/>
    <lane id=":14.13_0_1" index="1" disallow="pedestrian tram rail_urban rail rail_electric rail_fast ship" speed="22.22" length="0.30" width="3.75" shape="570.48,920.29,20.00 570.67,920.52,20.00"/>
    <lane id=":14.13_0_2" index="2" disallow="pedestrian tram rail_urban rail rail_electric rail_fast ship" speed="22.22" length="0.30" width="3.75" shape="567.56,922.64,20.00 567.75,922.88,20.00"/>
  </edge>
  <edge id=":15_0" function="internal">
    <lane id=":15_0_0" index="0" disallow="pedestrian tram rail_urban rail rail_electric rail_fast ship" speed="20.83" length="23.24" width="3.75" shape="250.50,1049.40,0.01 246.32,1049.48,0.01 241.24,1050.05,0.00 235.22,1051.67,0.00 228.22,1054.90"/>
  </edge>
  <edge id=":15_1" function="internal">
    <lane id=":15_1_0" index="0" disallow="pedestrian tram rail_urban rail rail_electric rail_fast ship" speed="22.22" length="21.80" width="3.75" shape="247.21,1044.18 228.22,1054.90"/>
    <lane id=":15_1_1" index="1" disallow="pedestrian tram rail_urban rail rail_electric rail_fast ship" speed="22.22" length="21.80" width="3.75" shape="245.37,1040.92 226.38,1051.63"/>
    <lane id=":15_1_2" index="2" disallow="pedestrian tram rail_urban rail rail_electric rail_fast ship" speed="22.22" length="21.80" width="3.75" shape="243.52,1037.66 224.54,1048.36"/>
  </edge>
  <edge id=":19.18_0" function="internal">
    <lane id=":19.18_0_0" index="0" disallow="pedestrian tram rail_urban rail rail_electric rail_fast ship" speed="22.22" length="0.30" width="3.75" shape="555.89,932.46,20.00 555.70,932.22,20.00"/>
    <lane id=":19.18_0_1" index="1" disallow="pedestrian tram rail_urban rail rail_electric rail_fast ship" speed="22.22" length="0.30" width="3.75" shape="558.81,930.10,20.00 558.62,929.87,20.00"/>
    <lane id=":19.18_0_2" index="2" disallow="pedestrian tram rail_urban rail rail_electric rail_fast ship" speed="22.22" length="0.30" width="3.75" shape="561.72,927.74,20.00 561.53,927.51,20.00"/>
  </edge>
  <edge id=":2_0" function="internal">
    <lane id=":2_0_0" index="0" disallow="pedestrian tram rail_urban rail rail_electric rail_fast ship" speed="15.97" length="81.33" width="3.75" shape="117.60,1090.19 133.37,1080.85,0.02 155.56,1067.13,0.04 176.03,1054.21,0.06 186.69,1047.29,0.07"/>
  </edge>
  <edge id=":2_1" function="internal">
    <lane id=":2_1_0" index="0" disallow="pedestrian tram rail_urban rail rail_electric rail_fast ship" speed="22.22" length="81.43" width="3.75" shape="117.60,1090.19 188.88,1050.86"/>
    <lane id=":2_1_1" index="1" disallow="pedestrian tram rail_urban rail rail_electric rail_fast ship" speed="22.22" length="81.43" width="3.75" shape="119.41,1093.48 190.70,1054.14"/>
    <lane id=":2_1_2" index="2" disallow="pedestrian tram rail_urban rail rail_electric rail_fast ship" speed="22.22" length="81.43" width="3.75" shape="121.21,1096.76 192.53,1057.41"/>
  </edge>
  <edge id=":2.1_0" function="internal">
    <lane id=":2.1_0_0" index="0" disallow="pedestrian tram rail_urban rail rail_electric rail_fast ship" speed="22.22" length="0.30" width="3.75" shape="514.94,876.89 514.69,877.07"/>
    <lane id=":2.1_0_1" index="1" disallow="pedestrian tram rail_urban rail rail_electric rail_fast ship" speed="22.22" length="0.30" width="3.75" shape="512.73,873.86 512.49,874.04"/>
    <lane id=":2.1_0_2" index="2" disallow="pedestrian tram rail_urban rail rail_electric rail_fast ship" speed="22.22" length="0.30" width="3.75" shape="510.53,870.83 510.29,871.00"/>
  </edge>
  <edge id=":23.22_0" function="internal">
    <lane id=":23.22_0_0" index="0" disallow="pedestrian tram rail_urban rail rail_electric rail_fast ship" speed="16.67" length="0.30" width="3.75" shape="659.09,1207.60,13.83 658.80,1207.53,13.83"/>
  </edge>
  <edge id=":25.24_0" function="internal">
    <lane id=":25.24_0_0" index="0" disallow="pedestrian tram rail_urban rail rail_electric rail_fast ship" speed="9.72" length="0.85" width="3.75" shape="300.09,824.91,7.42 300.04,824.06,7.48"/>
  </edge>
  <edge id=":29.28_0" function="internal">
    <lane id=":29.28_0_0" index="0" disallow="pedestrian tram rail_urban rail rail_electric rail_fast ship" speed="11.11" length="0.29" width="3.75" shape="679.74,398.93,7.64 680.03,398.97,7.64"/>
  </edge>
  <edge id=":3_0" function="internal">
    <lane id=":3_0_0" index="0" disallow="pedestrian tram rail_urban rail rail_electric rail_fast ship" speed="16.67" length="33.82" width="3.75" shape="155.54,343.34,20.00 162.25,351.91,19.95 168.88,359.05,19.91 174.64,364.45,19.87 178.73,367.81,19.85"/>
  </edge>
  <edge id=":3_1" function="internal">
    <lane id=":3_1_0" index="0" disallow="pedestrian tram rail_urban rail rail_electric rail_fast ship" speed="22.22" length="28.87" width="3.75" shape="155.54,343.34,20.00 172.20,366.91,20.00"/>
    <lane id=":3_1_1" index="1" disallow="pedestrian tram rail_urban rail rail_electric rail_fast ship" speed="22.22" length="28.87" width="3.75" shape="152.47,345.51,20.00 169.14,369.08,20.00"/>
    <lane id=":3_1_2" index="2" disallow="pedestrian tram rail_urban rail rail_electric rail_fast ship" speed="22.22" length="28.87" width="3.75" shape="149.41,347.67,20.00 166.08,371.24,20.00"/>
  </edge>
  <edge id=":31.30_0" function="internal">
    <lane id=":31.30_0_0" index="0" disallow="pedestrian tram rail_urban rail rail_electric rail_fast ship" speed="16.67" length="0.30" width="3.75" shape="766.72,762.51,7.89 766.69,762.81,7.90"/>
  </edge>
  <edge id=":33.32_0" function="internal">
    <lane id=":33.32_0_0" index="0" disallow="pedestrian tram rail_urban rail rail_electric rail_fast ship" speed="19.44" length="0.30" width="3.75" shape="333.97,1454.10,8.95 334.21,1454.27,8.95"/>
  </edge>
  <edge id=":35.34_0" function="internal">
    <lane id=":35.34_0_0" index="0" disallow="pedestrian tram rail_urban rail rail_electric rail_fast ship" speed="8.33" length="0.30" width="3.75" shape="-0.51,494.61,7.60 -0.46,494.32,7.59"/>
  </edge>
  <edge id=":37.36_0" function="internal">
    <lane id=":37.36_0_0" index="0" disallow="pedestrian tram rail_urban rail rail_electric rail_fast ship" speed="9.72" length="0.30" width="3.75" shape="445.58,124.62,14.26 445.50,124.33,14.27"/>
  </edge>
  <edge id=":39.38_0" function="internal">
    <lane id=":39.38_0_0" index="0" disallow="pedestrian tram rail_urban rail rail_electric rail_fast ship" speed="19.44" length="0.30" width="3.75" shape="933.51,857.28,7.34 933.44,857.57,7.34"/>
  </edge>
  <edge id=":4_0" function="internal">
    <lane id=":4_0_0" index="0" disallow="pedestrian tram rail_urban rail rail_electric rail_fast ship" speed="19.44" length="42.19" width="3.75" shape="889.01,1296.78,20.00 880.17,1288.37,20.00 870.54,1280.21,20.00 862.07,1273.57,20.00 856.71,1269.72,20.00"/>
  </edge>
  <edge id=":4_1" function="internal">
    <lane id=":4_1_0" index="0" disallow="pedestrian tram rail_urban rail rail_electric rail_fast ship" speed="22.22" length="42.44" width="3.75" shape="889.01,1296.78,20.00 859.64,1266.13,20.00"/>
    <lane id=":4_1_1" index="1" disallow="pedestrian tram rail_urban rail rail_electric rail_fast ship" speed="22.22" length="42.44" width="3.75" shape="891.71,1294.19,20.00 862.35,1263.54,20.00"/>
    <lane id=":4_1_2" index="2" disallow="pedestrian tram rail_urban rail rail_electric rail_fast ship" speed="22.22" length="42.44" width="3.75" shape="894.42,1291.59,20.00 865.06,1260.95,20.00"/>
  </edge>
  <edge id=":5_0" function="internal">
    <lane id=":5_0_0" index="0" disallow="pedestrian tram rail_urban rail rail_electric rail_fast ship" speed="19.44" length="40.48" width="3.75" shape="159.77,1098.47,0.14 153.72,1100.34,0.11 144.13,1103.77,0.08 132.99,1108.32,0.04 122.27,1113.54"/>
  </edge>
  <edge id=":5_1" function="internal">
    <lane id=":5_1_0" index="0" disallow="pedestrian tram rail_urban rail rail_electric rail_fast ship" speed="22.22" length="39.81" width="3.75" shape="157.16,1094.37 122.27,1113.54"/>
    <lane id=":5_1_1" index="1" disallow="pedestrian tram rail_urban rail rail_electric rail_fast ship" speed="22.22" length="39.81" width="3.75" shape="155.36,1091.09 120.46,1110.25"/>
    <lane id=":5_1_2" index="2" disallow="pedestrian tram rail_urban rail rail_electric rail_fast ship" speed="22.22" length="39.81" width="3.75" shape="153.55,1087.80 118.66,1106.97"/>
  </edge>
  <edge id=":6_0" function="internal">
    <lane id=":6_0_0" index="0" disallow="pedestrian tram rail_urban rail rail_electric rail_fast ship" speed="16.67" length="3.00" width="3.75" shape="765.46,1233.61,15.97 762.57,1232.83,15.88"/>
  </edge>
  <edge id=":6_1" function="internal">
    <lane id=":6_1_0" index="0" disallow="pedestrian tram rail_urban rail rail_electric rail_fast ship" speed="12.50" length="3.00" width="3.75" shape="765.46,1233.61,15.97 762.56,1232.83,15.92"/>
  </edge>
  <edge id=":7_0" function="internal">
    <lane id=":7_0_0" index="0" disallow="pedestrian tram rail_urban rail rail_electric rail_fast ship" speed="15.97" length="55.18" width="3.75" shape="113.89,331.30,20.00 109.72,323.74,20.00 102.17,310.52,20.00 93.43,295.84,20.00 85.70,283.88,20.00"/>
  </edge>
  <edge id=":7_1" function="internal">
    <lane id=":7_1_0" index="0" disallow="pedestrian tram rail_urban rail rail_electric rail_fast ship" speed="22.22" length="54.79" width="3.75" shape="117.30,328.64,20.00 85.70,283.88,20.00"/>
    <lane id=":7_1_1" index="1" disallow="pedestrian tram rail_urban rail rail_electric rail_fast ship" speed="22.22" length="54.79" width="3.75" shape="120.37,326.48,20.00 88.76,281.72,20.00"/>
    <lane id=":7_1_2" index="2" disallow="pedestrian tram rail_urban rail rail_electric rail_fast ship" speed="22.22" length="54.79" width="3.75" shape="123.43,324.32,20.00 91.82,279.56,20.00"/>
  </edge>
  <edge id=":8_0" function="internal">
    <lane id=":8_0_0" index="0" disallow="pedestrian tram rail_urban rail rail_electric rail_fast ship" speed="9.72" length="29.38" width="3.75" shape="300.03,823.87,7.50 299.24,817.93,7.51 297.68,809.38,7.52 295.95,800.85,7.53 294.64,795.00,7.54"/>
  </edge>
  <edge id=":8_1" function="internal">
    <lane id=":8_1_0" index="0" disallow="pedestrian tram rail_urban rail rail_electric rail_fast ship" speed="9.72" length="29.62" width="3.75" shape="300.03,823.87,7.50 298.65,794.28,7.56"/>
  </edge>
  <edge id=":8.7_0" function="internal">
    <lane id=":8.7_0_0" index="0" disallow="pedestrian tram rail_urban rail rail_electric rail_fast ship" speed="22.22" length="0.30" width="3.75" shape="501.32,858.67 501.56,858.49"/>
    <lane id=":8.7_0_1" index="1" disallow="pedestrian tram rail_urban rail rail_electric rail_fast ship" speed="22.22" length="0.30" width="3.75" shape="503.52,861.70 503.76,861.53"/>
    <lane id=":8.7_0_2" index="2" disallow="pedestrian tram rail_urban rail rail_electric rail_fast ship" speed="22.22" length="0.30" width="3.75" shape="505.73,864.74 505.97,864.56"/>
  </edge>
  <edge id=":9_0" function="internal">
    <lane id=":9_0_0" index="0" disallow="pedestrian tram rail_urban rail rail_electric rail_fast ship" speed="16.67" length="36.92" width="3.75" shape="966.16,466.27,0.13 971.36,463.73,0.11 979.12,459.26,0.08 988.15,453.31,0.04 997.12,446.32"/>
  </edge>
  <edge id=":9_1" function="internal">
    <lane id=":9_1_0" index="0" disallow="pedestrian tram rail_urban rail rail_electric rail_fast ship" speed="22.22" length="36.11" width="3.75" shape="969.82,469.95 997.12,446.32"/>
    <lane id=":9_1_1" index="1" disallow="pedestrian tram rail_urban rail rail_electric rail_fast ship" speed="22.22" length="36.11" width="3.75" shape="972.27,472.78 999.57,449.15"/>
    <lane id=":9_1_2" index="2" disallow="pedestrian tram rail_urban rail rail_electric rail_fast ship" speed="22.22" length="36.11" width="3.75" shape="974.73,475.62 1002.03,451.99"/>
  </edge>
  <edge id="-0" from="0.begin" to="0" priority="1" type="driving" shape="1114.14,363.18 1113.36,363.83 1112.56,364.50 1111.75,365.19 1110.92,365.89 1110.06,366.61 1109.19,367.34 1108.30,368.10 1107.39,368.86 1106.46,369.65 1105.52,370.45 1104.56,371.27 1103.57,372.11 1102.57,372.96 1101.56,373.82 1100.52,374.71 1099.47,375.60 1098.40,376.52 1097.31,377.45 1096.20,378.39 1095.08,379.35 1093.94,380.33 1092.78,381.32 1091.61,382.33 1090.42,383.35 1089.21,384.38 1087.99,385.43 1086.75,386.50 1085.49,387.58 1084.22,388.67 1082.93,389.78 1081.62,390.91 1080.30,392.04 1078.96,393.19 1077.61,394.36 1076.24,395.54 1074.86,396.73 1073.46,397.94 1072.05,399.16 1070.62,400.39 1069.17,401.64 1067.71,402.89 1066.24,404.17 1064.75,405.45 1063.25,406.75 1061.73,408.06 1060.20,409.39 1058.65,410.72 1057.09,412.07 1055.51,413.43 1053.93,414.81 1052.32,416.19 1050.71,417.59 1049.08,419.00 1047.43,420.42 1045.78,421.86 1044.11,423.30 1042.42,424.76 1040.73,426.23 1039.02,427.71 1037.30,429.20 1035.56,430.70 1033.81,432.21 1032.05,433.74 1030.28,435.27 1028.50,436.82 1026.70,438.37 1024.89,439.94 1023.07,441.52 1021.24,443.10 1019.39,444.70 1017.54,446.31 1015.67,447.92 1013.79,449.55 1011.90,451.19 1010.00,452.84 1008.09,454.49 1006.16,456.16 1004.23,457.83 1002.28,459.52 1000.33,461.21 998.36,462.91 996.39,464.62 994.40,466.34 992.40,468.07 990.40,469.81 988.38,471.56 986.35,473.31 984.31,475.07 982.27,476.85 980.21,478.62 978.15,480.41 976.07,482.21 973.99,484.01">
    <lane id="-0_0" index="0" disallow="pedestrian tram rail_urban rail rail_electric rail_fast ship" speed="22.22" length="180.96" width="3.75" shape="1120.16,370.37 1119.38,371.02 1118.59,371.68 1117.78,372.36 1116.96,373.06 1116.11,373.77 1115.24,374.50 1114.36,375.25 1113.45,376.02 1112.53,376.80 1111.59,377.60 1110.63,378.42 1109.65,379.25 1108.65,380.09 1107.64,380.96 1106.60,381.84 1105.55,382.74 1104.48,383.65 1103.40,384.57 1102.30,385.52 1101.17,386.48 1100.04,387.45 1098.88,388.44 1097.71,389.44 1096.52,390.46 1095.32,391.50 1094.09,392.55 1092.86,393.61 1091.60,394.69 1090.33,395.78 1089.04,396.89 1087.74,398.01 1086.42,399.15 1085.08,400.30 1083.73,401.46 1082.36,402.64 1080.98,403.83 1079.58,405.04 1078.17,406.25 1076.74,407.49 1075.30,408.73 1073.84,409.99 1072.37,411.26 1070.88,412.55 1069.38,413.85 1067.86,415.16 1066.33,416.48 1064.78,417.82 1063.22,419.17 1061.65,420.53 1060.06,421.90 1058.46,423.29 1056.84,424.68 1055.21,426.09 1053.57,427.51 1051.91,428.95 1050.24,430.39 1048.56,431.85 1046.86,433.32 1045.15,434.80 1043.43,436.29 1041.70,437.79 1039.95,439.30 1038.19,440.82 1036.42,442.36 1034.63,443.90 1032.84,445.46 1031.03,447.03 1029.21,448.60 1027.38,450.19 1025.53,451.79 1023.68,453.39 1021.81,455.01 1019.93,456.64 1018.04,458.28 1016.14,459.92 1014.23,461.58 1012.30,463.24 1010.37,464.92 1008.42,466.60 1006.47,468.30 1004.50,470.00 1002.52,471.71 1000.54,473.43 998.54,475.16 996.53,476.90 994.51,478.65 992.49,480.40 990.45,482.16 988.40,483.93 986.35,485.71 984.28,487.50 983.15,488.48" type="driving"/>
    <lane id="-0_1" index="1" disallow="pedestrian tram rail_urban rail rail_electric rail_fast ship" speed="22.22" length="180.96" width="3.75" shape="1117.75,367.49 1116.97,368.14 1116.18,368.81 1115.37,369.49 1114.54,370.19 1113.69,370.91 1112.82,371.64 1111.93,372.39 1111.03,373.16 1110.10,373.94 1109.16,374.74 1108.20,375.56 1107.22,376.39 1106.22,377.24 1105.20,378.10 1104.17,378.99 1103.12,379.88 1102.05,380.80 1100.96,381.72 1099.86,382.67 1098.74,383.63 1097.60,384.60 1096.44,385.59 1095.27,386.60 1094.08,387.62 1092.87,388.65 1091.65,389.70 1090.41,390.77 1089.16,391.85 1087.88,392.94 1086.60,394.05 1085.29,395.17 1083.97,396.31 1082.63,397.46 1081.28,398.62 1079.92,399.80 1078.53,400.99 1077.13,402.20 1075.72,403.42 1074.29,404.65 1072.85,405.89 1071.39,407.15 1069.92,408.43 1068.43,409.71 1066.92,411.01 1065.41,412.32 1063.87,413.64 1062.33,414.98 1060.77,416.33 1059.19,417.69 1057.60,419.06 1056.00,420.45 1054.39,421.85 1052.76,423.26 1051.11,424.68 1049.46,426.11 1047.79,427.56 1046.10,429.01 1044.41,430.48 1042.70,431.96 1040.98,433.45 1039.24,434.95 1037.50,436.46 1035.74,437.99 1033.96,439.52 1032.18,441.07 1030.38,442.62 1028.57,444.19 1026.75,445.77 1024.92,447.35 1023.08,448.95 1021.22,450.56 1019.35,452.18 1017.47,453.80 1015.58,455.44 1013.68,457.09 1011.77,458.74 1009.85,460.41 1007.91,462.08 1005.97,463.77 1004.01,465.46 1002.05,467.16 1000.07,468.88 998.08,470.60 996.08,472.33 994.08,474.06 992.06,475.81 990.03,477.56 988.00,479.33 985.95,481.10 983.89,482.88 981.83,484.67 980.69,485.65" type="driving"/>
    <lane id="-0_2" index="2" disallow="pedestrian tram rail_urban rail rail_electric rail_fast ship" speed="22.22" length="180.96" width="3.75" shape="1115.34,364.62 1114.56,365.27 1113.77,365.94 1112.96,366.62 1112.12,367.32 1111.27,368.04 1110.40,368.77 1109.51,369.53 1108.60,370.30 1107.68,371.08 1106.73,371.88 1105.77,372.70 1104.79,373.53 1103.79,374.38 1102.77,375.25 1101.74,376.13 1100.68,377.03 1099.61,377.94 1098.53,378.87 1097.42,379.82 1096.30,380.78 1095.16,381.75 1094.00,382.74 1092.83,383.75 1091.64,384.77 1090.43,385.81 1089.21,386.86 1087.97,387.92 1086.71,389.00 1085.44,390.10 1084.15,391.20 1082.84,392.33 1081.52,393.46 1080.19,394.61 1078.84,395.78 1077.47,396.96 1076.08,398.15 1074.69,399.36 1073.27,400.58 1071.84,401.81 1070.40,403.05 1068.94,404.31 1067.46,405.59 1065.98,406.87 1064.47,408.17 1062.95,409.48 1061.42,410.81 1059.88,412.14 1058.32,413.49 1056.74,414.85 1055.15,416.23 1053.55,417.61 1051.93,419.01 1050.30,420.42 1048.66,421.84 1047.00,423.28 1045.33,424.72 1043.65,426.18 1041.95,427.65 1040.25,429.12 1038.52,430.62 1036.79,432.12 1035.04,433.63 1033.28,435.15 1031.51,436.69 1029.72,438.23 1027.93,439.79 1026.12,441.36 1024.30,442.93 1022.47,444.52 1020.62,446.12 1018.77,447.72 1016.90,449.34 1015.02,450.97 1013.13,452.61 1011.23,454.25 1009.32,455.91 1007.39,457.57 1005.46,459.25 1003.51,460.93 1001.56,462.63 999.59,464.33 997.61,466.04 995.63,467.76 993.63,469.49 991.62,471.23 989.61,472.97 987.58,474.73 985.54,476.49 983.49,478.26 981.44,480.04 979.37,481.83 978.24,482.81" type="driving"/>
  </edge>