<?xml version='1.0' encoding='UTF-8'?>
<!-- generated on 2022-09-06 02:50:44 by Eclipse SUMO netconvert Version 1.13.0
<configuration xmlns:xsi="http://www.w3.org/2001/XMLSchema-instance" xsi:noNamespaceSchemaLocation="http://sumo.dlr.de/xsd/netconvertConfiguration.xsd">

    <input>
        <opendrive-files value="map\16\17137624\17137624.xodr"/>
    </input>

    <output>
        <output-file value="C:\Users\LinGe\AppData\Local\Temp\tmph8gi9gv8\17137624.net.xml"/>
    </output>

    <processing>
        <geometry.max-grade.fix value="false"/>
    </processing>

    <tls_building>
        <tls.left-green.time value="0"/>
    </tls_building>

    <junctions>
        <rectangular-lane-cut value="true"/>
    </junctions>

    <report>
        <aggregate-warnings value="5"/>
    </report>

</configuration>
-->
<net xmlns:xsi="http://www.w3.org/2001/XMLSchema-instance" version="1.9" junctionCornerDetail="5" rectangularLaneCut="true" limitTurnSpeed="5.50" xsi:noNamespaceSchemaLocation="http://sumo.dlr.de/xsd/net_file.xsd">
  <location netOffset="423.30,18.10" convBoundary="0.00,0.00,1424.73,1431.99" origBoundary="-423.30,-18.10,1001.43,1413.89" projParameter="!"/>
  <type id="bidirectional" priority="1" speed="1.39" disallow="pedestrian tram rail_urban rail rail_electric rail_fast ship" width="3.65"/>
  <type id="border" priority="0" speed="1.39" disallow="all" discard="1" width="0.10"/>
  <type id="driving" priority="1" speed="13.89" disallow="pedestrian tram rail_urban rail rail_electric rail_fast ship" width="3.65"/>
  <type id="entry" priority="1" speed="22.22" disallow="pedestrian tram rail_urban rail rail_electric rail_fast ship" width="3.65"/>
  <type id="exit" priority="1" speed="22.22" disallow="pedestrian tram rail_urban rail rail_electric rail_fast ship" width="3.65"/>
  <type id="median" priority="0" speed="1.39" disallow="all" discard="1" width="0.10"/>
  <type id="mwyEntry" priority="1" speed="22.22" allow="private emergency authority army vip passenger hov taxi bus coach delivery truck trailer motorcycle evehicle custom1 custom2" width="3.65"/>
  <type id="mwyExit" priority="1" speed="22.22" allow="private emergency authority army vip passenger hov taxi bus coach delivery truck trailer motorcycle evehicle custom1 custom2" width="3.65"/>
  <type id="none" priority="0" speed="1.39" disallow="all" discard="1" width="1.00"/>
  <type id="offRamp" priority="1" speed="22.22" allow="private emergency authority army vip passenger hov taxi bus coach delivery truck trailer motorcycle evehicle custom1 custom2" width="3.65"/>
  <type id="onRamp" priority="1" speed="22.22" allow="private emergency authority army vip passenger hov taxi bus coach delivery truck trailer motorcycle evehicle custom1 custom2" width="3.65"/>
  <type id="parking" priority="1" speed="1.39" disallow="pedestrian tram rail_urban rail rail_electric rail_fast ship" width="2.50"/>
  <type id="rail" priority="3" speed="33.33" allow="rail_urban rail rail_electric rail_fast" width="3.65"/>
  <type id="restricted" priority="0" speed="13.89" disallow="all" width="3.65"/>
  <type id="roadWorks" priority="0" speed="1.39" allow="authority" width="3.65"/>
  <type id="shoulder" priority="0" speed="1.39" disallow="all" discard="1" width="1.00"/>
  <type id="special1" priority="1" speed="22.22" allow="custom1" discard="1" width="3.65"/>
  <type id="special2" priority="1" speed="22.22" allow="custom2" discard="1" width="3.65"/>
  <type id="special3" priority="1" speed="22.22" allow="custom1 custom2" discard="1" width="3.65"/>
  <type id="stop" priority="1" speed="13.89" disallow="pedestrian tram rail_urban rail rail_electric rail_fast ship" width="3.65"/>
  <type id="tram" priority="2" speed="13.89" allow="tram" width="3.65"/>
  <edge id=":0_0" function="internal">
    <lane id=":0_0_0" index="0" disallow="pedestrian tram rail_urban rail rail_electric rail_fast ship" speed="15.28" length="8.02" width="3.75" shape="663.52,710.87 670.28,706.57,0.00"/>
  </edge>
  <edge id=":1_0" function="internal">
    <lane id=":1_0_0" index="0" disallow="pedestrian tram rail_urban rail rail_electric rail_fast ship" speed="12.24" length="14.51" width="3.75" shape="586.71,158.31,20.00 589.61,160.27,20.00 592.85,161.53,20.00 596.42,162.11,20.00 600.33,161.99,20.00"/>
  </edge>
  <edge id=":1_1" function="internal">
    <lane id=":1_1_0" index="0" disallow="pedestrian tram rail_urban rail rail_electric rail_fast ship" speed="22.22" length="15.29" width="3.75" shape="586.71,158.31,20.00 598.40,168.15,20.00"/>
    <lane id=":1_1_1" index="1" disallow="pedestrian tram rail_urban rail rail_electric rail_fast ship" speed="22.22" length="15.29" width="3.75" shape="584.29,161.17,20.00 595.99,171.02,20.00"/>
    <lane id=":1_1_2" index="2" disallow="pedestrian tram rail_urban rail rail_electric rail_fast ship" speed="22.22" length="15.29" width="3.75" shape="581.88,164.04,20.00 593.57,173.89,20.00"/>
  </edge>
  <edge id=":1.0_0" function="internal">
    <lane id=":1.0_0_0" index="0" disallow="pedestrian tram rail_urban rail rail_electric rail_fast ship" speed="22.22" length="0.30" width="3.75" shape="384.94,916.01 384.72,916.20"/>
    <lane id=":1.0_0_1" index="1" disallow="pedestrian tram rail_urban rail rail_electric rail_fast ship" speed="22.22" length="0.30" width="3.75" shape="382.42,913.23 382.19,913.43"/>
    <lane id=":1.0_0_2" index="2" disallow="pedestrian tram rail_urban rail rail_electric rail_fast ship" speed="22.22" length="0.30" width="3.75" shape="379.90,910.45 379.67,910.66"/>
  </edge>
  <edge id=":11.10_0" function="internal">
    <lane id=":11.10_0_0" index="0" disallow="pedestrian tram rail_urban rail rail_electric rail_fast ship" speed="22.22" length="0.30" width="3.75" shape="866.44,451.33,20.00 866.24,451.11,20.00"/>
    <lane id=":11.10_0_1" index="1" disallow="pedestrian tram rail_urban rail rail_electric rail_fast ship" speed="22.22" length="0.30" width="3.75" shape="869.26,448.86,20.00 869.06,448.64,20.00"/>
    <lane id=":11.10_0_2" index="2" disallow="pedestrian tram rail_urban rail rail_electric rail_fast ship" speed="22.22" length="0.30" width="3.75" shape="872.09,446.40,20.00 871.88,446.17,20.00"/>
  </edge>
  <edge id=":13.12_0" function="internal">
    <lane id=":13.12_0_0" index="0" disallow="pedestrian tram rail_urban rail rail_electric rail_fast ship" speed="8.33" length="0.30" width="3.75" shape="882.30,185.19,10.32 882.34,184.89,10.32"/>
  </edge>
  <edge id=":16.15_0" function="internal">
    <lane id=":16.15_0_0" index="0" disallow="pedestrian tram rail_urban rail rail_electric rail_fast ship" speed="19.44" length="0.30" width="3.75" shape="1422.82,271.91,9.89 1422.87,272.20,9.89"/>
  </edge>
  <edge id=":19.18_0" function="internal">
    <lane id=":19.18_0_0" index="0" disallow="pedestrian tram rail_urban rail rail_electric rail_fast ship" speed="8.33" length="0.29" width="3.75" shape="55.43,1412.62,19.02 55.61,1412.85,19.03"/>
  </edge>
  <edge id=":2_0" function="internal">
    <lane id=":2_0_0" index="0" disallow="pedestrian tram rail_urban rail rail_electric rail_fast ship" speed="16.67" length="8.00" width="3.75" shape="1053.44,694.51,20.00 1048.80,687.99,20.00"/>
  </edge>
  <edge id=":2_1" function="internal">
    <lane id=":2_1_0" index="0" disallow="pedestrian tram rail_urban rail rail_electric rail_fast ship" speed="22.22" length="8.00" width="3.75" shape="1053.44,694.51,20.00 1048.81,687.99,20.00"/>
    <lane id=":2_1_1" index="1" disallow="pedestrian tram rail_urban rail rail_electric rail_fast ship" speed="22.22" length="8.00" width="3.75" shape="1056.50,692.34,20.00 1051.86,685.82,20.00"/>
    <lane id=":2_1_2" index="2" disallow="pedestrian tram rail_urban rail rail_electric rail_fast ship" speed="22.22" length="8.00" width="3.75" shape="1059.56,690.17,20.00 1054.92,683.65,20.00"/>
  </edge>
  <edge id=":21.20_0" function="internal">
    <lane id=":21.20_0_0" index="0" disallow="pedestrian tram rail_urban rail rail_electric rail_fast ship" speed="11.11" length="0.30" width="3.75" shape="922.16,260.43,14.57 922.41,260.27,14.56"/>
  </edge>
  <edge id=":3_0" function="internal">
    <lane id=":3_0_0" index="0" disallow="pedestrian tram rail_urban rail rail_electric rail_fast ship" speed="15.28" length="32.99" width="3.75" shape="709.17,255.65,20.00 711.77,260.12,20.00 716.12,266.37,20.00 722.13,273.66,20.00 729.71,281.29,20.00"/>
  </edge>
  <edge id=":3_1" function="internal">
    <lane id=":3_1_0" index="0" disallow="pedestrian tram rail_urban rail rail_electric rail_fast ship" speed="22.22" length="32.00" width="3.75" shape="705.83,259.92,20.00 729.71,281.29,20.00"/>
    <lane id=":3_1_1" index="1" disallow="pedestrian tram rail_urban rail rail_electric rail_fast ship" speed="22.22" length="32.00" width="3.75" shape="703.34,262.73,20.00 727.19,284.07,20.00"/>
    <lane id=":3_1_2" index="2" disallow="pedestrian tram rail_urban rail rail_electric rail_fast ship" speed="22.22" length="32.00" width="3.75" shape="700.86,265.54,20.00 724.67,286.85,20.00"/>
  </edge>
  <edge id=":3.2_0" function="internal">
    <lane id=":3.2_0_0" index="0" disallow="pedestrian tram rail_urban rail rail_electric rail_fast ship" speed="22.22" length="0.30" width="3.75" shape="369.41,899.37 369.64,899.17"/>
    <lane id=":3.2_0_1" index="1" disallow="pedestrian tram rail_urban rail rail_electric rail_fast ship" speed="22.22" length="0.30" width="3.75" shape="371.94,902.14 372.16,901.94"/>
    <lane id=":3.2_0_2" index="2" disallow="pedestrian tram rail_urban rail rail_electric rail_fast ship" speed="22.22" length="0.30" width="3.75" shape="374.46,904.92 374.68,904.72"/>
  </edge>
  <edge id=":4_0" function="internal">
    <lane id=":4_0_0" index="0" disallow="pedestrian tram rail_urban rail rail_electric rail_fast ship" speed="8.33" length="32.29" width="3.75" shape="701.69,176.94,17.87 700.85,183.33,17.88 699.86,192.98,17.89 699.05,202.64,17.90 698.74,209.08,17.91"/>
  </edge>
  <edge id=":4_1" function="internal">
    <lane id=":4_1_0" index="0" disallow="pedestrian tram rail_urban rail rail_electric rail_fast ship" speed="8.33" length="32.72" width="3.75" shape="701.69,176.94,17.87 694.57,208.87,17.91"/>
  </edge>
  <edge id=":5_0" function="internal">
    <lane id=":5_0_0" index="0" disallow="pedestrian tram rail_urban rail rail_electric rail_fast ship" speed="20.83" length="8.41" width="3.75" shape="683.61,725.67,0.00 681.30,726.58,0.00 679.78,727.37,0.00 678.34,728.30,0.00 676.25,729.67"/>
  </edge>
  <edge id=":6_0" function="internal">
    <lane id=":6_0_0" index="0" disallow="pedestrian tram rail_urban rail rail_electric rail_fast ship" speed="15.28" length="22.29" width="3.75" shape="1081.29,746.79,20.00 1081.54,742.67,20.00 1081.00,737.78,20.00 1079.16,732.14,20.00 1075.52,725.79,20.00"/>
  </edge>
  <edge id=":6_1" function="internal">
    <lane id=":6_1_0" index="0" disallow="pedestrian tram rail_urban rail rail_electric rail_fast ship" speed="22.22" length="20.44" width="3.75" shape="1087.24,742.53,20.00 1075.52,725.79,20.00"/>
    <lane id=":6_1_1" index="1" disallow="pedestrian tram rail_urban rail rail_electric rail_fast ship" speed="22.22" length="20.44" width="3.75" shape="1090.32,740.38,20.00 1078.59,723.64,20.00"/>
    <lane id=":6_1_2" index="2" disallow="pedestrian tram rail_urban rail rail_electric rail_fast ship" speed="22.22" length="20.44" width="3.75" shape="1093.39,738.23,20.00 1081.66,721.48,20.00"/>
  </edge>
  <edge id=":7_0" function="internal">
    <lane id=":7_0_0" index="0" disallow="pedestrian tram rail_urban rail rail_electric rail_fast ship" speed="19.44" length="69.91" width="3.75" shape="1292.81,539.80,6.26 1282.34,546.30,6.26 1262.98,558.01,6.25 1243.55,569.62,6.24 1232.91,575.83,6.24"/>
  </edge>
  <edge id=":7_1" function="internal">
    <lane id=":7_1_0" index="0" disallow="pedestrian tram rail_urban rail rail_electric rail_fast ship" speed="15.28" length="69.99" width="3.75" shape="1290.76,536.46,6.34 1280.76,543.68,6.32 1262.08,556.51,6.29 1243.28,569.16,6.26 1232.91,575.83,6.24"/>
  </edge>
  <edge id=":7.6_0" function="internal">
    <lane id=":7.6_0_0" index="0" disallow="pedestrian tram rail_urban rail rail_electric rail_fast ship" speed="22.22" length="0.30" width="3.75" shape="883.36,436.12,20.00 883.56,436.35,20.00"/>
    <lane id=":7.6_0_1" index="1" disallow="pedestrian tram rail_urban rail rail_electric rail_fast ship" speed="22.22" length="0.30" width="3.75" shape="880.54,438.60,20.00 880.74,438.82,20.00"/>
    <lane id=":7.6_0_2" index="2" disallow="pedestrian tram rail_urban rail rail_electric rail_fast ship" speed="22.22" length="0.30" width="3.75" shape="877.72,441.07,20.00 877.91,441.29,20.00"/>
  </edge>
  <edge id="-0" from="5" to="1.0" priority="1" type="driving" shape="674.64,719.58 673.22,720.49 671.80,721.39 670.38,722.28 668.97,723.16 667.55,724.03 666.15,724.89 664.74,725.74 663.34,726.59 661.94,727.42 660.55,728.25 659.15,729.07 657.76,729.88 656.38,730.68 654.99,731.48 653.61,732.27 652.23,733.05 650.85,733.82 649.47,734.59 648.10,735.35 646.72,736.11 645.35,736.85 643.98,737.60 642.61,738.33 641.25,739.07 639.88,739.79 638.51,740.51 637.15,741.23 635.79,741.94 634.43,742.65 633.06,743.35 631.70,744.05 630.34,744.75 628.98,745.44 627.62,746.13 626.26,746.81 624.90,747.50 623.54,748.18 622.18,748.85 620.82,749.53 619.45,750.20 618.09,750.87 616.73,751.53 615.36,752.20 614.00,752.87 612.63,753.53 611.26,754.19 609.90,754.85 608.53,755.51 607.15,756.17 605.78,756.83 604.41,757.50 603.03,758.16 601.65,758.82 600.27,759.48 598.89,760.14 597.50,760.80 596.11,761.47 594.72,762.13 593.33,762.80 591.93,763.47 590.53,764.14 589.13,764.81 587.73,765.49 586.32,766.17 584.91,766.85 583.49,767.53 582.07,768.22 580.65,768.91 579.22,769.60 577.79,770.30 576.36,771.00 574.92,771.71 573.48,772.42 572.03,773.13 570.58,773.85 569.13,774.58 567.67,775.31 566.20,776.04 564.73,776.78 563.26,777.53 561.77,778.28 560.29,779.04 558.80,779.81 557.30,780.58 555.80,781.36 554.29,782.15 552.78,782.94 551.26,783.74 549.73,784.55 548.20,785.36 546.66,786.19 545.12,787.02 543.57,787.86 542.01,788.71 540.45,789.57 538.88,790.43 537.30,791.31 535.71,792.20 534.12,793.09 532.52,794.00 530.91,794.91 529.30,795.84 527.68,796.77 526.05,797.72 524.41,798.68 522.76,799.65 521.11,800.63 519.45,801.62 517.78,802.62 516.10,803.63 514.41,804.66 512.71,805.70 511.01,806.75 509.30,807.82 507.57,808.89 505.84,809.98 504.10,811.09 502.35,812.20 500.59,813.33 498.82,814.48 497.04,815.64 495.26,816.81 493.46,818.00 491.65,819.20 489.83,820.41 488.00,821.65 486.16,822.89 484.31,824.15 482.45,825.43 480.58,826.73 478.70,828.04 476.81,829.36 474.90,830.71 472.99,832.07 471.06,833.44 469.13,834.84 467.18,836.25 465.22,837.67 463.24,839.12 461.26,840.58 459.26,842.07 457.26,843.57 455.24,845.08 453.20,846.62 451.16,848.18 449.10,849.75 447.03,851.35 444.95,852.96 442.85,854.60 440.75,856.25 438.63,857.92 436.49,859.62 434.34,861.33 432.18,863.07 430.01,864.83 427.82,866.60 425.62,868.40 423.40,870.22 421.17,872.06 418.93,873.93 416.67,875.81 414.40,877.72 412.11,879.65 409.81,881.61 407.49,883.58 405.16,885.58 402.82,887.61 400.46,889.65 398.08,891.72 395.69,893.82 393.29,895.94 390.86,898.08 388.43,900.25 385.97,902.44 383.51,904.66 381.02,906.90 378.52,909.17">
    <lane id="-0_0" index="0" disallow="pedestrian tram rail_urban rail rail_electric rail_fast ship" speed="22.22" length="348.07" width="3.75" shape="676.25,729.67 675.35,730.23 673.90,731.13 672.46,732.02 671.02,732.90 669.59,733.77 668.16,734.63 666.73,735.48 665.31,736.32 663.89,737.16 662.47,737.98 661.06,738.80 659.65,739.61 658.24,740.42 656.83,741.21 655.43,742.00 654.03,742.78 652.63,743.56 651.23,744.33 649.83,745.09 648.44,745.84 647.05,746.59 645.66,747.34 644.27,748.08 642.89,748.81 641.50,749.54 640.12,750.26 638.74,750.98 637.36,751.69 635.98,752.40 634.60,753.10 633.22,753.80 631.84,754.50 630.47,755.19 629.09,755.88 627.72,756.57 626.34,757.25 624.97,757.93 623.59,758.61 622.22,759.28 620.85,759.96 619.47,760.63 618.10,761.30 616.72,761.96 615.35,762.63 613.97,763.30 612.60,763.96 611.22,764.62 609.84,765.29 608.46,765.95 607.08,766.61 605.70,767.27 604.32,767.93 602.93,768.60 601.55,769.26 600.16,769.92 598.77,770.59 597.38,771.25 595.98,771.92 594.59,772.59 593.19,773.26 591.79,773.94 590.39,774.61 588.98,775.29 587.57,775.97 586.16,776.65 584.75,777.34 583.33,778.03 581.91,778.72 580.49,779.42 579.06,780.12 577.63,780.83 576.19,781.54 574.75,782.25 573.31,782.97 571.86,783.69 570.41,784.42 568.96,785.15 567.50,785.89 566.03,786.64 564.56,787.39 563.09,788.14 561.61,788.91 560.12,789.68 558.63,790.45 557.14,791.24 555.64,792.03 554.13,792.83 552.62,793.63 551.10,794.45 549.58,795.27 548.05,796.10 546.51,796.93 544.97,797.78 543.42,798.64 541.86,799.50 540.30,800.37 538.73,801.26 537.15,802.15 535.56,803.05 533.97,803.96 532.37,804.89 530.77,805.82 529.15,806.76 527.53,807.72 525.90,808.69 524.26,809.66 522.61,810.65 520.96,811.65 519.30,812.66 517.62,813.69 515.94,814.72 514.25,815.77 512.56,816.83 510.85,817.91 509.13,819.00 507.41,820.10 505.67,821.21 503.93,822.34 502.17,823.48 500.41,824.64 498.63,825.81 496.85,827.00 495.05,828.20 493.25,829.41 491.43,830.64 489.61,831.89 487.77,833.15 485.93,834.43 484.07,835.72 482.20,837.03 480.32,838.36 478.43,839.70 476.53,841.06 474.61,842.44 472.69,843.83 470.75,845.24 468.80,846.67 466.84,848.12 464.86,849.58 462.88,851.07 460.88,852.57 458.87,854.09 456.85,855.63 454.81,857.19 452.77,858.77 450.70,860.36 448.63,861.98 446.54,863.62 444.44,865.28 442.33,866.95 440.20,868.65 438.06,870.37 435.91,872.11 433.74,873.87 431.56,875.65 429.36,877.46 427.15,879.28 424.93,881.13 422.69,883.00 420.44,884.89 418.17,886.81 415.89,888.75 413.59,890.71 411.28,892.69 408.95,894.70 406.61,896.73 404.25,898.78 401.88,900.86 399.49,902.97 397.09,905.09 394.67,907.24 392.23,909.42 389.78,911.62 387.31,913.85 384.94,916.01" type="driving"/>
    <lane id="-0_1" index="1" disallow="pedestrian tram rail_urban rail rail_electric rail_fast ship" speed="22.22" length="348.07" width="3.75" shape="674.25,726.49 673.36,727.05 671.93,727.94 670.50,728.82 669.07,729.69 667.65,730.56 666.23,731.41 664.82,732.26 663.41,733.09 662.00,733.92 660.59,734.74 659.19,735.55 657.78,736.36 656.39,737.16 654.99,737.95 653.60,738.73 652.20,739.51 650.81,740.28 649.43,741.04 648.04,741.79 646.66,742.55 645.27,743.29 643.89,744.03 642.52,744.76 641.14,745.49 639.76,746.21 638.39,746.93 637.01,747.65 635.64,748.36 634.27,749.06 632.90,749.76 631.52,750.46 630.15,751.15 628.78,751.84 627.41,752.53 626.05,753.21 624.68,753.89 623.31,754.57 621.94,755.24 620.57,755.92 619.20,756.59 617.83,757.26 616.46,757.92 615.09,758.59 613.71,759.25 612.34,759.92 610.97,760.58 609.59,761.24 608.22,761.91 606.84,762.57 605.46,763.23 604.08,763.89 602.70,764.55 601.31,765.21 599.93,765.88 598.54,766.54 597.15,767.21 595.76,767.87 594.36,768.54 592.97,769.21 591.57,769.88 590.17,770.56 588.76,771.23 587.35,771.91 585.94,772.59 584.53,773.28 583.11,773.97 581.69,774.66 580.26,775.35 578.84,776.05 577.40,776.76 575.97,777.46 574.53,778.17 573.09,778.89 571.64,779.61 570.19,780.34 568.73,781.07 567.27,781.81 565.80,782.55 564.33,783.30 562.85,784.05 561.37,784.81 559.89,785.58 558.39,786.35 556.90,787.13 555.39,787.92 553.89,788.71 552.37,789.52 550.85,790.32 549.33,791.14 547.79,791.97 546.25,792.80 544.71,793.64 543.16,794.50 541.60,795.36 540.03,796.22 538.46,797.10 536.88,797.99 535.30,798.89 533.70,799.80 532.10,800.71 530.49,801.64 528.88,802.58 527.25,803.53 525.62,804.49 523.98,805.46 522.34,806.44 520.68,807.44 519.02,808.44 517.34,809.46 515.66,810.49 513.97,811.54 512.27,812.59 510.56,813.66 508.85,814.74 507.12,815.83 505.38,816.94 503.64,818.06 501.88,819.20 500.12,820.34 498.35,821.51 496.56,822.69 494.77,823.88 492.96,825.08 491.15,826.31 489.33,827.54 487.49,828.80 485.64,830.06 483.79,831.35 481.92,832.65 480.04,833.96 478.15,835.30 476.25,836.65 474.34,838.01 472.42,839.40 470.48,840.80 468.54,842.22 466.58,843.65 464.61,845.11 462.62,846.58 460.63,848.07 458.62,849.58 456.60,851.10 454.57,852.65 452.53,854.21 450.47,855.80 448.40,857.40 446.32,859.03 444.22,860.67 442.12,862.34 439.99,864.02 437.86,865.72 435.71,867.45 433.55,869.20 431.37,870.96 429.18,872.75 426.98,874.56 424.76,876.40 422.53,878.25 420.28,880.13 418.02,882.03 415.75,883.95 413.46,885.89 411.15,887.86 408.83,889.85 406.50,891.86 404.15,893.90 401.78,895.96 399.40,898.04 397.01,900.15 394.60,902.29 392.17,904.45 389.73,906.63 387.27,908.84 384.80,911.07 382.42,913.23" type="driving"/>
    <lane id="-0_2" index="2" disallow="pedestrian tram rail_urban rail rail_electric rail_fast ship" speed="22.22" length="348.07" width="3.75" shape="672.26,723.31 671.37,723.87 669.95,724.75 668.54,725.63 667.12,726.49 665.71,727.35 664.30,728.19 662.90,729.03 661.50,729.86 660.10,730.68 658.71,731.50 657.31,732.31 655.92,733.10 654.53,733.90 653.15,734.68 651.76,735.46 650.38,736.23 649.00,736.99 647.62,737.75 646.25,738.50 644.87,739.25 643.50,739.99 642.13,740.72 640.76,741.45 639.39,742.17 638.02,742.89 636.65,743.61 635.29,744.32 633.92,745.02 632.56,745.72 631.19,746.42 629.83,747.11 628.46,747.80 627.10,748.49 625.74,749.17 624.37,749.85 623.01,750.53 621.65,751.21 620.28,751.88 618.92,752.55 617.55,753.22 616.19,753.89 614.82,754.55 613.45,755.22 612.08,755.88 610.71,756.54 609.34,757.20 607.97,757.86 606.59,758.52 605.22,759.19 603.84,759.85 602.46,760.51 601.08,761.17 599.69,761.83 598.31,762.49 596.92,763.16 595.53,763.82 594.14,764.49 592.74,765.16 591.34,765.83 589.94,766.50 588.54,767.18 587.13,767.86 585.72,768.54 584.31,769.22 582.89,769.91 581.47,770.60 580.05,771.29 578.62,771.99 577.19,772.69 575.75,773.39 574.31,774.10 572.87,774.81 571.42,775.53 569.96,776.26 568.51,776.98 567.04,777.72 565.58,778.46 564.10,779.20 562.63,779.95 561.14,780.71 559.66,781.48 558.16,782.25 556.66,783.02 555.16,783.81 553.65,784.60 552.13,785.40 550.61,786.20 549.08,787.02 547.55,787.84 546.01,788.67 544.46,789.51 542.91,790.35 541.35,791.21 539.78,792.07 538.21,792.95 536.63,793.83 535.04,794.73 533.45,795.63 531.84,796.54 530.23,797.46 528.62,798.40 526.99,799.34 525.36,800.30 523.72,801.26 522.07,802.24 520.41,803.23 518.74,804.23 517.07,805.24 515.39,806.26 513.70,807.30 512.00,808.35 510.29,809.41 508.57,810.48 506.84,811.57 505.11,812.67 503.36,813.78 501.61,814.91 499.84,816.05 498.07,817.21 496.29,818.37 494.49,819.56 492.69,820.76 490.87,821.97 489.05,823.20 487.22,824.44 485.37,825.70 483.52,826.98 481.65,828.27 479.77,829.57 477.89,830.90 475.99,832.24 474.08,833.59 472.16,834.97 470.22,836.36 468.28,837.76 466.32,839.19 464.35,840.63 462.38,842.09 460.38,843.57 458.38,845.07 456.37,846.58 454.34,848.12 452.30,849.67 450.24,851.24 448.18,852.83 446.10,854.44 444.01,856.07 441.91,857.72 439.79,859.39 437.66,861.09 435.52,862.80 433.36,864.53 431.19,866.28 429.00,868.06 426.81,869.85 424.59,871.67 422.37,873.51 420.13,875.37 417.87,877.25 415.61,879.16 413.32,881.08 411.03,883.04 408.71,885.01 406.39,887.01 404.04,889.03 401.69,891.07 399.32,893.14 396.93,895.23 394.53,897.34 392.11,899.48 389.67,901.65 387.23,903.84 384.76,906.05 382.28,908.29 379.90,910.45" type="driving"/>
  </edge>
  <edge id="-1" from="1.0" to="1.end" priority="1" type="driving" shape="378.52,909.17 376.33,911.16 374.16,913.15 372.00,915.14 369.85,917.12 367.72,919.09 365.61,921.06 363.51,923.02 361.43,924.98 359.36,926.93 357.30,928.88 355.26,930.83 353.24,932.76 351.23,934.70 349.23,936.62 347.25,938.55 345.28,940.46 343.32,942.38 341.38,944.28 339.46,946.18 337.54,948.08 335.64,949.97 333.76,951.86 331.88,953.74 330.03,955.62 328.18,957.49 326.35,959.35 324.53,961.22 322.72,963.07 320.93,964.92 319.15,966.77 317.38,968.61 315.63,970.45 313.88,972.28 312.15,974.11 310.43,975.93 308.73,977.74 307.04,979.56 305.35,981.36 303.69,983.16 302.03,984.96 300.38,986.75 298.75,988.54 297.13,990.32 295.52,992.10 293.92,993.87 292.33,995.64 290.75,997.41 289.19,999.16 287.63,1000.92 286.09,1002.67 284.56,1004.41 283.04,1006.15 281.53,1007.89 280.03,1009.61 278.54,1011.34 277.06,1013.06 275.59,1014.78 274.13,1016.49 272.68,1018.19 271.25,1019.90 269.82,1021.59 268.40,1023.29 266.99,1024.97 265.59,1026.66 264.20,1028.34 262.82,1030.01 261.45,1031.68 260.09,1033.34 258.74,1035.01 257.40,1036.66 256.06,1038.31 254.74,1039.96 253.42,1041.60 252.12,1043.24 250.82,1044.87 249.53,1046.50 248.25,1048.13 246.98,1049.75 245.71,1051.36 244.46,1052.97 243.21,1054.58 241.97,1056.18 240.74,1057.78 239.52,1059.37 238.30,1060.96 237.09,1062.54 235.89,1064.13 234.70,1065.70 233.51,1067.27 232.33,1068.84 231.16,1070.40 230.00,1071.96 228.84,1073.52 227.69,1075.07 226.55,1076.61 225.41,1078.15 224.28,1079.69 223.16,1081.22 222.04,1082.75 220.93,1084.28 219.83,1085.80 218.73,1087.31 217.64,1088.82 216.55,1090.33 215.47,1091.83 214.40,1093.33 213.33,1094.83 212.27,1096.32 211.21,1097.81 210.16,1099.29 209.12,1100.77 208.08,1102.24 207.04,1103.71 206.01,1105.18 204.99,1106.64 203.97,1108.10 202.95,1109.56 201.94,1111.01 200.94,1112.45 199.93,1113.90 198.94,1115.33 197.94,1116.77 196.96,1118.20 195.97,1119.62 194.99,1121.05 194.02,1122.47 193.05,1123.88 192.08,1125.29 191.11,1126.70 190.15,1128.10 189.20,1129.50 188.24,1130.89 187.29,1132.29 186.35,1133.67 185.40,1135.06 184.46,1136.44 183.52,1137.81 182.59,1139.18 181.66,1140.55 180.73,1141.92 179.80,1143.28 178.88,1144.64 177.96,1145.99 177.04,1147.34 176.12,1148.68 175.21,1150.03 174.29,1151.36 173.38,1152.70 172.47,1154.03 171.57,1155.36 170.66,1156.68 169.76,1158.00 168.86,1159.32 167.96,1160.63 167.06,1161.94 166.16,1163.24 165.26,1164.55 164.37,1165.84 163.47,1167.14 162.58,1168.43 161.69,1169.72 160.80,1171.00 159.90,1172.28 159.01,1173.56 158.12,1174.83 157.23,1176.10 156.34,1177.37 155.45,1178.63 154.56,1179.89 153.67,1181.15 152.78,1182.40 151.89,1183.65 151.00,1184.90 150.11,1186.14 149.22,1187.38 148.33,1188.61 147.44,1189.84 146.54,1191.07 145.65,1192.30 144.76,1193.52 143.86,1194.74 142.96,1195.95 142.06,1197.17 141.16,1198.38 140.26,1199.58 139.36,1200.78 138.46,1201.98 137.55,1203.18 136.64,1204.37 135.73,1205.56 134.82,1206.75 133.91,1207.93 132.99,1209.11 132.08,1210.28 131.16,1211.46 130.23,1212.63 129.31,1213.79 128.38,1214.96 127.45,1216.12 126.52,1217.28 125.58,1218.43 124.64,1219.58">
    <lane id="-1_0" index="0" disallow="pedestrian tram rail_urban rail rail_electric rail_fast ship" speed="22.22" length="401.13" width="3.75" shape="384.72,916.20 382.65,918.08 380.49,920.06 378.35,922.03 376.22,924.00 374.11,925.96 372.01,927.91 369.92,929.86 367.85,931.81 365.80,933.75 363.76,935.68 361.74,937.61 359.73,939.53 357.73,941.45 355.75,943.36 353.78,945.27 351.83,947.17 349.89,949.07 347.96,950.96 346.05,952.85 344.15,954.73 342.27,956.61 340.39,958.48 338.54,960.35 336.69,962.21 334.86,964.06 333.04,965.91 331.24,967.76 329.45,969.60 327.67,971.44 325.90,973.27 324.15,975.10 322.41,976.92 320.68,978.73 318.97,980.55 317.26,982.35 315.57,984.15 313.89,985.95 312.23,987.74 310.57,989.53 308.93,991.31 307.30,993.09 305.68,994.86 304.07,996.63 302.47,998.39 300.89,1000.15 299.31,1001.90 297.75,1003.65 296.20,1005.39 294.66,1007.13 293.13,1008.86 291.61,1010.59 290.10,1012.31 288.60,1014.03 287.12,1015.75 285.64,1017.46 284.17,1019.16 282.72,1020.87 281.27,1022.56 279.84,1024.25 278.41,1025.94 277.00,1027.62 275.59,1029.30 274.19,1030.97 272.81,1032.64 271.43,1034.31 270.06,1035.96 268.71,1037.62 267.36,1039.27 266.02,1040.92 264.69,1042.56 263.36,1044.19 262.05,1045.83 260.75,1047.46 259.45,1049.08 258.17,1050.70 256.89,1052.31 255.62,1053.92 254.36,1055.53 253.10,1057.13 251.86,1058.73 250.62,1060.32 249.39,1061.91 248.17,1063.50 246.96,1065.08 245.75,1066.65 244.55,1068.22 243.36,1069.79 242.18,1071.35 241.00,1072.91 239.83,1074.47 238.67,1076.02 237.51,1077.56 236.37,1079.11 235.22,1080.65 234.09,1082.18 232.96,1083.71 231.84,1085.24 230.73,1086.76 229.62,1088.28 228.51,1089.79 227.42,1091.30 226.33,1092.80 225.24,1094.31 224.17,1095.80 223.09,1097.30 222.03,1098.79 220.97,1100.27 219.91,1101.76 218.86,1103.23 217.81,1104.71 216.77,1106.18 215.74,1107.64 214.71,1109.11 213.69,1110.57 212.67,1112.02 211.65,1113.47 210.64,1114.92 209.64,1116.36 208.63,1117.80 207.64,1119.24 206.64,1120.67 205.66,1122.10 204.67,1123.52 203.69,1124.94 202.72,1126.36 201.74,1127.78 200.77,1129.19 199.81,1130.59 198.85,1132.00 197.89,1133.40 196.93,1134.79 195.98,1136.18 195.03,1137.57 194.09,1138.96 193.15,1140.34 192.21,1141.72 191.27,1143.09 190.34,1144.46 189.41,1145.83 188.48,1147.19 187.55,1148.55 186.63,1149.91 185.71,1151.27 184.79,1152.62 183.87,1153.96 182.95,1155.31 182.04,1156.65 181.13,1157.98 180.22,1159.32 179.31,1160.65 178.40,1161.97 177.49,1163.30 176.59,1164.62 175.69,1165.93 174.78,1167.25 173.88,1168.56 172.98,1169.87 172.08,1171.17 171.18,1172.47 170.29,1173.77 169.39,1175.06 168.49,1176.35 167.59,1177.64 166.70,1178.93 165.80,1180.21 164.91,1181.49 164.01,1182.76 163.11,1184.04 162.22,1185.31 161.32,1186.57 160.42,1187.83 159.52,1189.09 158.63,1190.35 157.73,1191.61 156.83,1192.86 155.93,1194.10 155.03,1195.35 154.12,1196.59 153.22,1197.83 152.31,1199.07 151.41,1200.30 150.50,1201.53 149.59,1202.76 148.68,1203.98 147.77,1205.20 146.85,1206.42 145.94,1207.63 145.02,1208.85 144.10,1210.06 143.18,1211.26 142.25,1212.47 141.32,1213.67 140.39,1214.86 139.46,1216.06 138.53,1217.25 137.59,1218.44 136.65,1219.63 135.71,1220.81 134.76,1221.99 133.81,1223.17 132.86,1224.34 131.91,1225.51" type="driving"/>