<?xml version='1.0' encoding='UTF-8'?>
<!-- generated on 2022-09-05 19:00:55 by Eclipse SUMO netconvert Version 1.13.0
<configuration xmlns:xsi="http://www.w3.org/2001/XMLSchema-instance" xsi:noNamespaceSchemaLocation="http://sumo.dlr.de/xsd/netconvertConfiguration.xsd">

    <input>
        <opendrive-files value="map\classification\13\35237137\35237137.xodr"/>
    </input>

    <output>
        <output-file value="C:\Users\LinGe\AppData\Local\Temp\tmpjl9v2_7k\35237137.net.xml"/>
    </output>

    <processing>
        <geometry.max-grade.fix value="false"/>
    </processing>

    <tls_building>
        <tls.left-green.time value="0"/>
    </tls_building>

    <junctions>
        <rectangular-lane-cut value="true"/>
    </junctions>

    <report>
        <aggregate-warnings value="5"/>
    </report>

</configuration>
-->
<net xmlns:xsi="http://www.w3.org/2001/XMLSchema-instance" version="1.9" junctionCornerDetail="5" rectangularLaneCut="true" limitTurnSpeed="5.50" xsi:noNamespaceSchemaLocation="http://sumo.dlr.de/xsd/net_file.xsd">
  <location netOffset="1.56,101.26" convBoundary="0.00,0.00,1102.73,1302.51" origBoundary="-1.56,-101.26,1101.18,1201.26" projParameter="!"/>
  <type id="bidirectional" priority="1" speed="1.39" disallow="pedestrian tram rail_urban rail rail_electric rail_fast ship" width="3.65"/>
  <type id="border" priority="0" speed="1.39" disallow="all" discard="1" width="0.10"/>
  <type id="driving" priority="1" speed="13.89" disallow="pedestrian tram rail_urban rail rail_electric rail_fast ship" width="3.65"/>
  <type id="entry" priority="1" speed="22.22" disallow="pedestrian tram rail_urban rail rail_electric rail_fast ship" width="3.65"/>
  <type id="exit" priority="1" speed="22.22" disallow="pedestrian tram rail_urban rail rail_electric rail_fast ship" width="3.65"/>
  <type id="median" priority="0" speed="1.39" disallow="all" discard="1" width="0.10"/>
  <type id="mwyEntry" priority="1" speed="22.22" allow="private emergency authority army vip passenger hov taxi bus coach delivery truck trailer motorcycle evehicle custom1 custom2" width="3.65"/>
  <type id="mwyExit" priority="1" speed="22.22" allow="private emergency authority army vip passenger hov taxi bus coach delivery truck trailer motorcycle evehicle custom1 custom2" width="3.65"/>
  <type id="none" priority="0" speed="1.39" disallow="all" discard="1" width="1.00"/>
  <type id="offRamp" priority="1" speed="22.22" allow="private emergency authority army vip passenger hov taxi bus coach delivery truck trailer motorcycle evehicle custom1 custom2" width="3.65"/>
  <type id="onRamp" priority="1" speed="22.22" allow="private emergency authority army vip passenger hov taxi bus coach delivery truck trailer motorcycle evehicle custom1 custom2" width="3.65"/>
  <type id="parking" priority="1" speed="1.39" disallow="pedestrian tram rail_urban rail rail_electric rail_fast ship" width="2.50"/>
  <type id="rail" priority="3" speed="33.33" allow="rail_urban rail rail_electric rail_fast" width="3.65"/>
  <type id="restricted" priority="0" speed="13.89" disallow="all" width="3.65"/>
  <type id="roadWorks" priority="0" speed="1.39" allow="authority" width="3.65"/>
  <type id="shoulder" priority="0" speed="1.39" disallow="all" discard="1" width="1.00"/>
  <type id="special1" priority="1" speed="22.22" allow="custom1" discard="1" width="3.65"/>
  <type id="special2" priority="1" speed="22.22" allow="custom2" discard="1" width="3.65"/>
  <type id="special3" priority="1" speed="22.22" allow="custom1 custom2" discard="1" width="3.65"/>
  <type id="stop" priority="1" speed="13.89" disallow="pedestrian tram rail_urban rail rail_electric rail_fast ship" width="3.65"/>
  <type id="tram" priority="2" speed="13.89" allow="tram" width="3.65"/>
  <edge id=":0_0" function="internal">
    <lane id=":0_0_0" index="0" disallow="pedestrian tram rail_urban rail rail_electric rail_fast ship" speed="16.67" length="100.68" width="3.75" shape="1029.02,258.88 945.04,314.41"/>
  </edge>
  <edge id=":0_1" function="internal">
    <lane id=":0_1_0" index="0" disallow="pedestrian tram rail_urban rail rail_electric rail_fast ship" speed="22.22" length="100.77" width="3.75" shape="1029.02,258.88 942.79,311.01"/>
    <lane id=":0_1_1" index="1" disallow="pedestrian tram rail_urban rail rail_electric rail_fast ship" speed="22.22" length="100.77" width="3.75" shape="1027.08,255.67 940.84,307.80"/>
    <lane id=":0_1_2" index="2" disallow="pedestrian tram rail_urban rail rail_electric rail_fast ship" speed="22.22" length="100.77" width="3.75" shape="1025.13,252.46 938.90,304.59"/>
  </edge>
  <edge id=":1_0" function="internal">
    <lane id=":1_0_0" index="0" disallow="pedestrian tram rail_urban rail rail_electric rail_fast ship" speed="19.44" length="78.52" width="3.75" shape="63.86,930.27 76.71,917.83 94.41,900.00 110.64,883.36 119.10,874.48"/>
  </edge>
  <edge id=":1_1" function="internal">
    <lane id=":1_1_0" index="0" disallow="pedestrian tram rail_urban rail rail_electric rail_fast ship" speed="22.22" length="78.65" width="3.75" shape="63.86,930.27 122.10,877.41"/>
    <lane id=":1_1_1" index="1" disallow="pedestrian tram rail_urban rail rail_electric rail_fast ship" speed="22.22" length="78.65" width="3.75" shape="66.38,933.05 124.62,880.19"/>
    <lane id=":1_1_2" index="2" disallow="pedestrian tram rail_urban rail rail_electric rail_fast ship" speed="22.22" length="78.65" width="3.75" shape="68.90,935.82 127.14,882.97"/>
  </edge>
  <edge id=":10_0" function="internal">
    <lane id=":10_0_0" index="0" disallow="pedestrian tram rail_urban rail rail_electric rail_fast ship" speed="16.67" length="37.14" width="3.75" shape="812.06,1028.40,19.89 815.01,1033.42,19.90 819.96,1040.98,19.93 826.41,1049.75,19.96 833.84,1058.39,20.00"/>
  </edge>
  <edge id=":10_1" function="internal">
    <lane id=":10_1_0" index="0" disallow="pedestrian tram rail_urban rail rail_electric rail_fast ship" speed="22.22" length="36.42" width="3.75" shape="808.74,1032.02,20.00 833.84,1058.39,20.00"/>
    <lane id=":10_1_1" index="1" disallow="pedestrian tram rail_urban rail rail_electric rail_fast ship" speed="22.22" length="36.42" width="3.75" shape="806.02,1034.60,20.00 831.13,1060.98,20.00"/>
    <lane id=":10_1_2" index="2" disallow="pedestrian tram rail_urban rail rail_electric rail_fast ship" speed="22.22" length="36.42" width="3.75" shape="803.30,1037.19,20.00 828.42,1063.57,20.00"/>
  </edge>
  <edge id=":11_0" function="internal">
    <lane id=":11_0_0" index="0" disallow="pedestrian tram rail_urban rail rail_electric rail_fast ship" speed="11.11" length="33.66" width="3.75" shape="784.60,469.32,6.03 781.03,474.95,6.04 775.78,483.66,6.05 770.65,492.43,6.07 767.45,498.27,6.08"/>
  </edge>
  <edge id=":11_1" function="internal">
    <lane id=":11_1_0" index="0" disallow="pedestrian tram rail_urban rail rail_electric rail_fast ship" speed="16.67" length="34.15" width="3.75" shape="784.60,469.32,6.03 780.61,474.75,6.05 774.34,482.97,6.08 767.99,491.12,6.12 763.72,496.34,6.14"/>
  </edge>
  <edge id=":12_0" function="internal">
    <lane id=":12_0_0" index="0" disallow="pedestrian tram rail_urban rail rail_electric rail_fast ship" speed="9.72" length="27.66" width="3.75" shape="534.30,416.89,6.95 561.87,414.64,6.90"/>
  </edge>
  <edge id=":12_1" function="internal">
    <lane id=":12_1_0" index="0" disallow="pedestrian tram rail_urban rail rail_electric rail_fast ship" speed="15.97" length="27.27" width="3.75" shape="535.37,420.94,6.99 540.76,419.23,6.97 548.49,417.27,6.95 556.28,415.57,6.92 561.87,414.64,6.90"/>
  </edge>
  <edge id=":13_0" function="internal">
    <lane id=":13_0_0" index="0" disallow="pedestrian tram rail_urban rail rail_electric rail_fast ship" speed="11.11" length="44.98" width="3.75" shape="749.85,660.97,12.53 751.03,705.94,12.57"/>
  </edge>
  <edge id=":13_1" function="internal">
    <lane id=":13_1_0" index="0" disallow="pedestrian tram rail_urban rail rail_electric rail_fast ship" speed="9.72" length="44.75" width="3.75" shape="745.87,661.50,12.49 747.06,669.81,12.50 748.74,683.68,12.53 750.27,697.58,12.55 751.03,705.94,12.57"/>
  </edge>
  <edge id=":14_0" function="internal">
    <lane id=":14_0_0" index="0" disallow="pedestrian tram rail_urban rail rail_electric rail_fast ship" speed="11.11" length="94.38" width="3.75" shape="462.46,862.23,7.56 369.99,843.27,7.52"/>
  </edge>
  <edge id=":14_1" function="internal">
    <lane id=":14_1_0" index="0" disallow="pedestrian tram rail_urban rail rail_electric rail_fast ship" speed="16.67" length="94.27" width="3.75" shape="463.04,858.43,7.56 369.99,843.27,7.52"/>
  </edge>
  <edge id=":14.13_0" function="internal">
    <lane id=":14.13_0_0" index="0" disallow="pedestrian tram rail_urban rail rail_electric rail_fast ship" speed="22.22" length="0.30" width="3.75" shape="539.85,768.36,20.00 539.66,768.13,20.00"/>
    <lane id=":14.13_0_1" index="1" disallow="pedestrian tram rail_urban rail rail_electric rail_fast ship" speed="22.22" length="0.30" width="3.75" shape="542.77,766.01,20.00 542.58,765.77,20.00"/>
    <lane id=":14.13_0_2" index="2" disallow="pedestrian tram rail_urban rail rail_electric rail_fast ship" speed="22.22" length="0.30" width="3.75" shape="545.68,763.65,20.00 545.50,763.42,20.00"/>
  </edge>
  <edge id=":15_0" function="internal">
    <lane id=":15_0_0" index="0" disallow="pedestrian tram rail_urban rail rail_electric rail_fast ship" speed="16.67" length="32.32" width="3.75" shape="227.82,434.97,14.54 218.85,403.92,14.58"/>
  </edge>
  <edge id=":15_1" function="internal">
    <lane id=":15_1_0" index="0" disallow="pedestrian tram rail_urban rail rail_electric rail_fast ship" speed="19.44" length="32.05" width="3.75" shape="231.57,433.32,14.49 228.77,427.55,14.51 224.86,418.77,14.54 221.12,409.92,14.57 218.85,403.92,14.58"/>
  </edge>
  <edge id=":18.17_0" function="internal">
    <lane id=":18.17_0_0" index="0" disallow="pedestrian tram rail_urban rail rail_electric rail_fast ship" speed="11.11" length="0.30" width="3.75" shape="470.53,863.83,10.01 470.24,863.78,10.01"/>
  </edge>
  <edge id=":2_0" function="internal">
    <lane id=":2_0_0" index="0" disallow="pedestrian tram rail_urban rail rail_electric rail_fast ship" speed="15.97" length="61.91" width="3.75" shape="96.66,116.34,20.00 105.91,128.51,20.00 118.12,143.59,20.00 129.33,157.07,20.00 135.62,164.43,20.00"/>
  </edge>
  <edge id=":2_1" function="internal">
    <lane id=":2_1_0" index="0" disallow="pedestrian tram rail_urban rail rail_electric rail_fast ship" speed="22.22" length="62.01" width="3.75" shape="96.66,116.34,20.00 132.32,167.06,20.00"/>
    <lane id=":2_1_1" index="1" disallow="pedestrian tram rail_urban rail rail_electric rail_fast ship" speed="22.22" length="62.01" width="3.75" shape="93.59,118.49,20.00 129.26,169.22,20.00"/>
    <lane id=":2_1_2" index="2" disallow="pedestrian tram rail_urban rail rail_electric rail_fast ship" speed="22.22" length="62.01" width="3.75" shape="90.52,120.65,20.00 126.19,171.37,20.00"/>
  </edge>
  <edge id=":2.1_0" function="internal">
    <lane id=":2.1_0_0" index="0" disallow="pedestrian tram rail_urban rail rail_electric rail_fast ship" speed="22.22" length="0.30" width="3.75" shape="476.61,607.65 476.37,607.82"/>
    <lane id=":2.1_0_1" index="1" disallow="pedestrian tram rail_urban rail rail_electric rail_fast ship" speed="22.22" length="0.30" width="3.75" shape="474.41,604.62 474.17,604.79"/>
    <lane id=":2.1_0_2" index="2" disallow="pedestrian tram rail_urban rail rail_electric rail_fast ship" speed="22.22" length="0.30" width="3.75" shape="472.21,601.58 471.96,601.76"/>
  </edge>
  <edge id=":22.21_0" function="internal">
    <lane id=":22.21_0_0" index="0" disallow="pedestrian tram rail_urban rail rail_electric rail_fast ship" speed="16.67" length="0.30" width="3.75" shape="246.83,564.98,9.92 246.85,564.68,9.93"/>
  </edge>
  <edge id=":26.25_0" function="internal">
    <lane id=":26.25_0_0" index="0" disallow="pedestrian tram rail_urban rail rail_electric rail_fast ship" speed="9.72" length="0.29" width="3.75" shape="447.01,413.90,10.55 447.29,413.96,10.54"/>
  </edge>
  <edge id=":3_0" function="internal">
    <lane id=":3_0_0" index="0" disallow="pedestrian tram rail_urban rail rail_electric rail_fast ship" speed="16.67" length="45.88" width="3.75" shape="806.93,1063.11,20.00 797.72,1054.26,20.00 787.25,1045.13,20.00 777.97,1037.48,20.00 772.34,1033.02,20.00"/>
  </edge>
  <edge id=":3_1" function="internal">
    <lane id=":3_1_0" index="0" disallow="pedestrian tram rail_urban rail rail_electric rail_fast ship" speed="22.22" length="46.00" width="3.75" shape="806.93,1063.11,20.00 775.24,1029.75,20.00"/>
    <lane id=":3_1_1" index="1" disallow="pedestrian tram rail_urban rail rail_electric rail_fast ship" speed="22.22" length="46.00" width="3.75" shape="809.65,1060.53,20.00 777.97,1027.17,20.00"/>
    <lane id=":3_1_2" index="2" disallow="pedestrian tram rail_urban rail rail_electric rail_fast ship" speed="22.22" length="46.00" width="3.75" shape="812.36,1057.94,20.00 780.69,1024.59,20.00"/>
  </edge>
  <edge id=":30.29_0" function="internal">
    <lane id=":30.29_0_0" index="0" disallow="pedestrian tram rail_urban rail rail_electric rail_fast ship" speed="11.11" length="0.29" width="3.75" shape="759.35,519.70,8.13 759.28,519.99,8.15"/>
  </edge>
  <edge id=":33.32_0" function="internal">
    <lane id=":33.32_0_0" index="0" disallow="pedestrian tram rail_urban rail rail_electric rail_fast ship" speed="22.22" length="0.30" width="3.75" shape="453.78,688.13,11.06 453.72,687.83,11.06"/>
  </edge>
  <edge id=":35.34_0" function="internal">
    <lane id=":35.34_0_0" index="0" disallow="pedestrian tram rail_urban rail rail_electric rail_fast ship" speed="8.33" length="0.29" width="3.75" shape="488.20,376.13,9.46 488.49,376.15,9.46"/>
  </edge>
  <edge id=":37.36_0" function="internal">
    <lane id=":37.36_0_0" index="0" disallow="pedestrian tram rail_urban rail rail_electric rail_fast ship" speed="22.22" length="0.30" width="3.75" shape="621.55,809.85,10.06 621.62,810.13,10.05"/>
  </edge>
  <edge id=":39.38_0" function="internal">
    <lane id=":39.38_0_0" index="0" disallow="pedestrian tram rail_urban rail rail_electric rail_fast ship" speed="22.22" length="0.30" width="3.75" shape="490.35,592.52,10.24 490.05,592.49,10.24"/>
  </edge>
  <edge id=":4_0" function="internal">
    <lane id=":4_0_0" index="0" disallow="pedestrian tram rail_urban rail rail_electric rail_fast ship" speed="16.67" length="71.68" width="3.75" shape="160.29,879.38,0.00 151.36,886.14,0.00 134.93,899.05,0.00 117.20,913.33,0.00 104.36,924.19"/>
  </edge>
  <edge id=":4_1" function="internal">
    <lane id=":4_1_0" index="0" disallow="pedestrian tram rail_urban rail rail_electric rail_fast ship" speed="22.22" length="71.33" width="3.75" shape="157.21,876.31 104.36,924.19"/>
    <lane id=":4_1_1" index="1" disallow="pedestrian tram rail_urban rail rail_electric rail_fast ship" speed="22.22" length="71.33" width="3.75" shape="154.70,873.53 101.84,921.41"/>
    <lane id=":4_1_2" index="2" disallow="pedestrian tram rail_urban rail rail_electric rail_fast ship" speed="22.22" length="71.33" width="3.75" shape="152.18,870.74 99.32,918.64"/>
  </edge>
  <edge id=":5_0" function="internal">
    <lane id=":5_0_0" index="0" disallow="pedestrian tram rail_urban rail rail_electric rail_fast ship" speed="11.11" length="3.00" width="3.75" shape="674.20,966.70,15.75 671.65,965.13,15.65"/>
  </edge>
  <edge id=":5_1" function="internal">
    <lane id=":5_1_0" index="0" disallow="pedestrian tram rail_urban rail rail_electric rail_fast ship" speed="16.67" length="3.00" width="3.75" shape="674.20,966.70,15.75 671.65,965.12,15.70"/>
  </edge>
  <edge id=":6_0" function="internal">
    <lane id=":6_0_0" index="0" disallow="pedestrian tram rail_urban rail rail_electric rail_fast ship" speed="19.44" length="79.03" width="3.75" shape="147.25,235.05,20.00 140.88,224.47,20.00 128.58,204.54,20.00 115.12,183.13,20.00 105.26,168.11,20.00"/>
  </edge>
  <edge id=":6_1" function="internal">
    <lane id=":6_1_0" index="0" disallow="pedestrian tram rail_urban rail rail_electric rail_fast ship" speed="22.22" length="78.74" width="3.75" shape="150.58,232.50,20.00 105.26,168.11,20.00"/>
    <lane id=":6_1_1" index="1" disallow="pedestrian tram rail_urban rail rail_electric rail_fast ship" speed="22.22" length="78.74" width="3.75" shape="153.65,230.34,20.00 108.33,165.95,20.00"/>
    <lane id=":6_1_2" index="2" disallow="pedestrian tram rail_urban rail rail_electric rail_fast ship" speed="22.22" length="78.74" width="3.75" shape="156.71,228.18,20.00 111.39,163.79,20.00"/>
  </edge>
  <edge id=":6.5_0" function="internal">
    <lane id=":6.5_0_0" index="0" disallow="pedestrian tram rail_urban rail rail_electric rail_fast ship" speed="22.22" length="0.30" width="3.75" shape="462.99,589.43 463.24,589.25"/>
    <lane id=":6.5_0_1" index="1" disallow="pedestrian tram rail_urban rail rail_electric rail_fast ship" speed="22.22" length="0.30" width="3.75" shape="465.20,592.46 465.44,592.28"/>
    <lane id=":6.5_0_2" index="2" disallow="pedestrian tram rail_urban rail rail_electric rail_fast ship" speed="22.22" length="0.30" width="3.75" shape="467.40,595.49 467.64,595.32"/>
  </edge>
  <edge id=":7_0" function="internal">
    <lane id=":7_0_0" index="0" disallow="pedestrian tram rail_urban rail rail_electric rail_fast ship" speed="16.67" length="3.00" width="3.75" shape="233.79,657.94,6.53 234.47,655.03,6.64"/>
  </edge>
  <edge id=":7_1" function="internal">
    <lane id=":7_1_0" index="0" disallow="pedestrian tram rail_urban rail rail_electric rail_fast ship" speed="12.50" length="3.01" width="3.75" shape="233.79,657.94,6.53 234.48,655.02,6.59"/>
  </edge>
  <edge id=":8_0" function="internal">
    <lane id=":8_0_0" index="0" disallow="pedestrian tram rail_urban rail rail_electric rail_fast ship" speed="15.97" length="88.63" width="3.75" shape="861.71,328.77,0.00 873.97,322.32,0.00 897.51,309.68,0.00 922.61,295.98,0.00 939.55,286.39"/>
  </edge>
  <edge id=":8_1" function="internal">
    <lane id=":8_1_0" index="0" disallow="pedestrian tram rail_urban rail rail_electric rail_fast ship" speed="22.22" length="88.36" width="3.75" shape="864.00,332.24 939.55,286.39"/>
    <lane id=":8_1_1" index="1" disallow="pedestrian tram rail_urban rail rail_electric rail_fast ship" speed="22.22" length="88.36" width="3.75" shape="865.95,335.44 941.49,289.60"/>
    <lane id=":8_1_2" index="2" disallow="pedestrian tram rail_urban rail rail_electric rail_fast ship" speed="22.22" length="88.36" width="3.75" shape="867.90,338.64 943.43,292.81"/>
  </edge>
  <edge id=":9_0" function="internal">
    <lane id=":9_0_0" index="0" disallow="pedestrian tram rail_urban rail rail_electric rail_fast ship" speed="9.72" length="3.00" width="3.75" shape="245.02,271.19,15.92 247.26,273.18,15.85"/>
  </edge>
  <edge id=":9_1" function="internal">
    <lane id=":9_1_0" index="0" disallow="pedestrian tram rail_urban rail rail_electric rail_fast ship" speed="15.97" length="3.00" width="3.75" shape="245.02,271.19,15.92 247.26,273.18,15.88"/>
  </edge>
  <edge id=":9.10_0" function="internal">
    <lane id=":9.10_0_0" index="0" disallow="pedestrian tram rail_urban rail rail_electric rail_fast ship" speed="22.22" length="0.30" width="3.75" shape="557.36,753.84,20.00 557.55,754.07,20.00"/>
    <lane id=":9.10_0_1" index="1" disallow="pedestrian tram rail_urban rail rail_electric rail_fast ship" speed="22.22" length="0.30" width="3.75" shape="554.44,756.19,20.00 554.63,756.42,20.00"/>
    <lane id=":9.10_0_2" index="2" disallow="pedestrian tram rail_urban rail rail_electric rail_fast ship" speed="22.22" length="0.30" width="3.75" shape="551.52,758.55,20.00 551.71,758.78,20.00"/>
  </edge>
  <edge id="-0" from="0.begin" to="0" priority="1" type="driving" shape="1102.73,202.87 1101.69,203.53 1100.61,204.20 1099.51,204.89 1098.38,205.60 1097.22,206.32 1096.03,207.06 1094.81,207.82 1093.56,208.59 1092.28,209.38 1090.98,210.19 1089.65,211.01 1088.29,211.85 1086.91,212.70 1085.50,213.57 1084.06,214.45 1082.59,215.35 1081.10,216.26 1079.59,217.19 1078.04,218.14 1076.47,219.10 1074.88,220.07 1073.26,221.06 1071.62,222.07 1069.95,223.08 1068.25,224.12 1066.53,225.16 1064.79,226.22 1063.02,227.30 1061.23,228.39 1059.42,229.49 1057.58,230.61 1055.72,231.74 1053.83,232.88 1051.93,234.04 1050.00,235.21 1048.05,236.39 1046.07,237.59 1044.08,238.80 1042.06,240.02 1040.02,241.26 1037.96,242.50 1035.88,243.76 1033.78,245.04 1031.66,246.32 1029.51,247.62 1027.35,248.93 1025.17,250.25 1022.96,251.58 1020.74,252.92">
    <lane id="-0_0" index="0" disallow="pedestrian tram rail_urban rail rail_electric rail_fast ship" speed="22.22" length="92.15" width="3.75" shape="1107.72,210.81 1106.67,211.47 1105.59,212.15 1104.48,212.84 1103.34,213.56 1102.17,214.28 1100.97,215.03 1099.75,215.79 1098.50,216.56 1097.22,217.36 1095.91,218.16 1094.57,218.99 1093.21,219.83 1091.82,220.68 1090.41,221.55 1088.97,222.44 1087.50,223.34 1086.00,224.26 1084.48,225.19 1082.94,226.14 1081.36,227.10 1079.77,228.07 1078.15,229.06 1076.50,230.07 1074.83,231.09 1073.13,232.12 1071.41,233.17 1069.66,234.23 1067.89,235.31 1066.10,236.40 1064.29,237.50 1062.45,238.62 1060.58,239.75 1058.70,240.90 1056.79,242.05 1054.86,243.23 1052.91,244.41 1050.93,245.61 1048.94,246.82 1046.92,248.04 1044.88,249.28 1042.82,250.52 1040.74,251.78 1038.63,253.06 1036.51,254.34 1034.37,255.64 1032.20,256.95 1030.02,258.27 1029.02,258.88" type="driving"/>
    <lane id="-0_1" index="1" disallow="pedestrian tram rail_urban rail rail_electric rail_fast ship" speed="22.22" length="92.15" width="3.75" shape="1105.72,207.64 1104.68,208.30 1103.60,208.97 1102.49,209.66 1101.35,210.37 1100.19,211.10 1098.99,211.84 1097.77,212.60 1096.52,213.38 1095.24,214.17 1093.94,214.97 1092.61,215.80 1091.25,216.63 1089.86,217.49 1088.44,218.36 1087.00,219.24 1085.54,220.14 1084.04,221.06 1082.52,221.99 1080.98,222.94 1079.41,223.90 1077.81,224.87 1076.19,225.86 1074.54,226.87 1072.87,227.89 1071.18,228.92 1069.46,229.97 1067.71,231.03 1065.95,232.11 1064.15,233.20 1062.34,234.30 1060.50,235.42 1058.64,236.55 1056.75,237.69 1054.85,238.85 1052.92,240.02 1050.96,241.20 1048.99,242.40 1046.99,243.61 1044.98,244.83 1042.94,246.07 1040.88,247.32 1038.79,248.58 1036.69,249.85 1034.57,251.13 1032.43,252.43 1030.26,253.74 1028.08,255.06 1027.08,255.67" type="driving"/>
    <lane id="-0_2" index="2" disallow="pedestrian tram rail_urban rail rail_electric rail_fast ship" speed="22.22" length="92.15" width="3.75" shape="1103.73,204.46 1102.68,205.12 1101.61,205.79 1100.50,206.48 1099.37,207.19 1098.21,207.92 1097.01,208.66 1095.79,209.41 1094.55,210.19 1093.27,210.98 1091.97,211.78 1090.64,212.60 1089.28,213.44 1087.89,214.30 1086.48,215.16 1085.04,216.05 1083.58,216.95 1082.08,217.86 1080.57,218.79 1079.02,219.74 1077.45,220.70 1075.86,221.67 1074.24,222.66 1072.59,223.67 1070.92,224.68 1069.23,225.72 1067.51,226.76 1065.76,227.83 1064.00,228.90 1062.21,229.99 1060.39,231.09 1058.55,232.21 1056.69,233.34 1054.81,234.49 1052.90,235.64 1050.97,236.81 1049.02,238.00 1047.05,239.19 1045.05,240.40 1043.03,241.63 1040.99,242.86 1038.93,244.11 1036.85,245.37 1034.75,246.64 1032.63,247.93 1030.48,249.22 1028.32,250.53 1026.14,251.85 1025.13,252.46" type="driving"/>
  </edge>
  <edge id="-1" from="0" to="2.1" priority="1" type="driving" shape="1020.74,252.92 1019.38,253.74 1018.02,254.57 1016.65,255.40 1015.27,256.23 1013.89,257.07 1012.50,257.91 1011.10,258.75 1009.69,259.60 1008.28,260.45 1006.86,261.31 1005.44,262.17 1004.01,263.04 1002.57,263.91 1001.12,264.78 999.67,265.66 998.22,266.54 996.75,267.42 995.28,268.31 993.81,269.20 992.32,270.10 990.83,271.00 989.34,271.90 987.84,272.81 986.33,273.72 984.82,274.63 983.30,275.55 981.77,276.47 980.24,277.40 978.70,278.33 977.16,279.26 975.61,280.20 974.06,281.14 972.50,282.08 970.93,283.02 969.36,283.97 967.79,284.93 966.21,285.88 964.62,286.84 963.03,287.81 961.43,288.77 959.83,289.74 958.22,290.71 956.60,291.69 954.99,292.67 953.36,293.65 951.73,294.63 950.10,295.62 948.46,296.61 946.82,297.61 945.17,298.61 943.52,299.61 941.86,300.61 940.20,301.62 938.53,302.63 936.86,303.64 935.18,304.65 933.50,305.67 931.82,306.69 930.13,307.71 928.43,308.74 926.74,309.77 925.03,310.80 923.33,311.83 921.62,312.87 919.90,313.91 918.18,314.95 916.46,316.00 914.73,317.05 913.00,318.10 911.27,319.15 909.53,320.20 907.78,321.26 906.04,322.32 904.29,323.38 902.53,324.45 900.78,325.51 899.02,326.58 897.25,327.65 895.48,328.73 893.71,329.80 891.94,330.88 890.16,331.96 888.38,333.05 886.59,334.13 884.80,335.22 883.01,336.31 881.22,337.40 879.42,338.49 877.62,339.59 875.82,340.68 874.01,341.78 872.20,342.89 870.39,343.99 868.58,345.09 866.76,346.20 864.94,347.31 863.12,348.42 861.29,349.53 859.46,350.65 857.63,351.76 855.80,352.88 853.97,354.00 852.13,355.12 850.29,356.24 848.45,357.37 846.60,358.50 844.76,359.62 842.91,360.75 841.06,361.88 839.20,363.02 837.35,364.15 835.49,365.28 833.64,366.42 831.77,367.56 829.91,368.70 828.05,369.84 826.18,370.98 824.32,372.13 822.45,373.27 820.58,374.42 818.70,375.56 816.83,376.71 814.96,377.86 813.08,379.01 811.20,380.16 809.32,381.32 807.44,382.47 805.56,383.63 803.68,384.78 801.80,385.94 799.91,387.10 798.03,388.26 796.14,389.42 794.25,390.58 792.37,391.74 790.48,392.90 788.59,394.07 786.70,395.23 784.80,396.40 782.91,397.56 781.02,398.73 779.13,399.90 777.23,401.06 775.34,402.23 773.45,403.40 771.55,404.57 769.66,405.74 767.76,406.91 765.87,408.08 763.97,409.26 762.07,410.43 760.18,411.60 758.28,412.77 756.39,413.95 754.49,415.12 752.60,416.30 750.70,417.47 748.80,418.65 746.91,419.82 745.02,421.00 743.12,422.17 741.23,423.35 739.33,424.53 737.44,425.70 735.55,426.88 733.66,428.06 731.76,429.23 729.87,430.41 727.98,431.59 726.10,432.76 724.21,433.94 722.32,435.12 720.43,436.29 718.55,437.47 716.66,438.65 714.78,439.82 712.90,441.00 711.02,442.17 709.14,443.35 707.26,444.53 705.38,445.70 703.50,446.88 701.63,448.05 699.76,449.22 697.88,450.40 696.01,451.57 694.15,452.74 692.28,453.92 690.41,455.09 688.55,456.26 686.69,457.43 684.83,458.60 682.97,459.77 681.11,460.94 679.26,462.11 677.40,463.28 675.55,464.45 673.71,465.61 671.86,466.78 670.02,467.94 668.17,469.11 666.33,470.27 664.50,471.43 662.66,472.60 660.83,473.76 659.00,474.92 657.17,476.08 655.35,477.23 653.52,478.39 651.70,479.55 649.89,480.70 648.07,481.86 646.26,483.01 644.45,484.16 642.65,485.31 640.84,486.46 639.04,487.61 637.24,488.76 635.45,489.90 633.66,491.05 631.87,492.19 630.09,493.34 628.31,494.48 626.53,495.62 624.75,496.75 622.98,497.89 621.21,499.03 619.45,500.16 617.69,501.29 615.93,502.42 614.18,503.55 612.43,504.68 610.68,505.81 608.94,506.93 607.20,508.05 605.47,509.18 603.74,510.30 602.01,511.41 600.29,512.53 598.57,513.64 596.85,514.76 595.14,515.87 593.43,516.98 591.73,518.08 590.03,519.19 588.34,520.29 586.65,521.39 584.97,522.49 583.29,523.59 581.61,524.69 579.94,525.78 578.27,526.87 576.61,527.96 574.95,529.05 573.30,530.13 571.65,531.22 570.01,532.30 568.37,533.37 566.74,534.45 565.11,535.53 563.48,536.60 561.87,537.67 560.25,538.73 558.65,539.80 557.04,540.86 555.44,541.92 553.85,542.98 552.27,544.03 550.68,545.09 549.11,546.14 547.54,547.18 545.97,548.23 544.41,549.27 542.86,550.31 541.31,551.35 539.77,552.38 538.23,553.41 536.70,554.44 535.18,555.47 533.66,556.49 532.15,557.51 530.64,558.53 529.14,559.55 527.64,560.56 526.15,561.57 524.67,562.57 523.19,563.58 521.72,564.58 520.26,565.58 518.80,566.57 517.35,567.56 515.91,568.55 514.47,569.54 513.04,570.52 511.61,571.50 510.20,572.47 508.78,573.45 507.38,574.42 505.98,575.38 504.59,576.34 503.21,577.30 501.83,578.26 500.46,579.21 499.10,580.16 497.74,581.11 496.39,582.05 495.05,582.99 493.71,583.93 492.39,584.86 491.07,585.79 489.75,586.72 488.45,587.64 487.15,588.56 485.86,589.47 484.58,590.38 483.30,591.29 482.04,592.19 480.78,593.09 479.52,593.99 478.28,594.88 477.04,595.77 475.81,596.65 474.59,597.54 473.38,598.41 472.18,599.29 470.98,600.16">