<?xml version='1.0' encoding='UTF-8'?>
<!-- generated on 2022-09-06 02:57:26 by Eclipse SUMO netconvert Version 1.13.0
<configuration xmlns:xsi="http://www.w3.org/2001/XMLSchema-instance" xsi:noNamespaceSchemaLocation="http://sumo.dlr.de/xsd/netconvertConfiguration.xsd">

    <input>
        <opendrive-files value="map\16\62723676\62723676.xodr"/>
    </input>

    <output>
        <output-file value="C:\Users\LinGe\AppData\Local\Temp\tmpr648cugr\62723676.net.xml"/>
    </output>

    <processing>
        <geometry.max-grade.fix value="false"/>
    </processing>

    <tls_building>
        <tls.left-green.time value="0"/>
    </tls_building>

    <junctions>
        <rectangular-lane-cut value="true"/>
    </junctions>

    <report>
        <aggregate-warnings value="5"/>
    </report>

</configuration>
-->
<net xmlns:xsi="http://www.w3.org/2001/XMLSchema-instance" version="1.9" junctionCornerDetail="5" rectangularLaneCut="true" limitTurnSpeed="5.50" xsi:noNamespaceSchemaLocation="http://sumo.dlr.de/xsd/net_file.xsd">
  <location netOffset="301.35,-65.91" convBoundary="0.00,0.00,1267.74,1348.29" origBoundary="-301.35,65.91,966.39,1414.21" projParameter="!"/>
  <type id="bidirectional" priority="1" speed="1.39" disallow="pedestrian tram rail_urban rail rail_electric rail_fast ship" width="3.65"/>
  <type id="border" priority="0" speed="1.39" disallow="all" discard="1" width="0.10"/>
  <type id="driving" priority="1" speed="13.89" disallow="pedestrian tram rail_urban rail rail_electric rail_fast ship" width="3.65"/>
  <type id="entry" priority="1" speed="22.22" disallow="pedestrian tram rail_urban rail rail_electric rail_fast ship" width="3.65"/>
  <type id="exit" priority="1" speed="22.22" disallow="pedestrian tram rail_urban rail rail_electric rail_fast ship" width="3.65"/>
  <type id="median" priority="0" speed="1.39" disallow="all" discard="1" width="0.10"/>
  <type id="mwyEntry" priority="1" speed="22.22" allow="private emergency authority army vip passenger hov taxi bus coach delivery truck trailer motorcycle evehicle custom1 custom2" width="3.65"/>
  <type id="mwyExit" priority="1" speed="22.22" allow="private emergency authority army vip passenger hov taxi bus coach delivery truck trailer motorcycle evehicle custom1 custom2" width="3.65"/>
  <type id="none" priority="0" speed="1.39" disallow="all" discard="1" width="1.00"/>
  <type id="offRamp" priority="1" speed="22.22" allow="private emergency authority army vip passenger hov taxi bus coach delivery truck trailer motorcycle evehicle custom1 custom2" width="3.65"/>
  <type id="onRamp" priority="1" speed="22.22" allow="private emergency authority army vip passenger hov taxi bus coach delivery truck trailer motorcycle evehicle custom1 custom2" width="3.65"/>
  <type id="parking" priority="1" speed="1.39" disallow="pedestrian tram rail_urban rail rail_electric rail_fast ship" width="2.50"/>
  <type id="rail" priority="3" speed="33.33" allow="rail_urban rail rail_electric rail_fast" width="3.65"/>
  <type id="restricted" priority="0" speed="13.89" disallow="all" width="3.65"/>
  <type id="roadWorks" priority="0" speed="1.39" allow="authority" width="3.65"/>
  <type id="shoulder" priority="0" speed="1.39" disallow="all" discard="1" width="1.00"/>
  <type id="special1" priority="1" speed="22.22" allow="custom1" discard="1" width="3.65"/>
  <type id="special2" priority="1" speed="22.22" allow="custom2" discard="1" width="3.65"/>
  <type id="special3" priority="1" speed="22.22" allow="custom1 custom2" discard="1" width="3.65"/>
  <type id="stop" priority="1" speed="13.89" disallow="pedestrian tram rail_urban rail rail_electric rail_fast ship" width="3.65"/>
  <type id="tram" priority="2" speed="13.89" allow="tram" width="3.65"/>
  <edge id=":0_0" function="internal">
    <lane id=":0_0_0" index="0" disallow="pedestrian tram rail_urban rail rail_electric rail_fast ship" speed="19.44" length="8.31" width="3.75" shape="541.46,627.04 543.50,625.65,0.00 544.90,624.69,0.00 546.36,623.86,0.00 548.59,622.81,0.01"/>
  </edge>
  <edge id=":1_0" function="internal">
    <lane id=":1_0_0" index="0" disallow="pedestrian tram rail_urban rail rail_electric rail_fast ship" speed="9.92" length="13.20" width="3.75" shape="511.13,188.77,20.00 513.29,191.48,20.00 515.86,193.39,20.00 518.82,194.48,20.00 522.19,194.77,20.00"/>
  </edge>
  <edge id=":1_1" function="internal">
    <lane id=":1_1_0" index="0" disallow="pedestrian tram rail_urban rail rail_electric rail_fast ship" speed="22.22" length="14.29" width="3.75" shape="511.13,188.77,20.00 518.77,200.82,20.00"/>
    <lane id=":1_1_1" index="1" disallow="pedestrian tram rail_urban rail rail_electric rail_fast ship" speed="22.22" length="14.29" width="3.75" shape="507.96,190.77,20.00 515.61,202.84,20.00"/>
    <lane id=":1_1_2" index="2" disallow="pedestrian tram rail_urban rail rail_electric rail_fast ship" speed="22.22" length="14.29" width="3.75" shape="504.78,192.77,20.00 512.44,204.85,20.00"/>
  </edge>
  <edge id=":1.0_0" function="internal">
    <lane id=":1.0_0_0" index="0" disallow="pedestrian tram rail_urban rail rail_electric rail_fast ship" speed="22.22" length="0.30" width="3.75" shape="219.84,871.16 219.62,871.36"/>
    <lane id=":1.0_0_1" index="1" disallow="pedestrian tram rail_urban rail rail_electric rail_fast ship" speed="22.22" length="0.30" width="3.75" shape="217.32,868.38 217.10,868.58"/>
    <lane id=":1.0_0_2" index="2" disallow="pedestrian tram rail_urban rail rail_electric rail_fast ship" speed="22.22" length="0.30" width="3.75" shape="214.80,865.61 214.57,865.81"/>
  </edge>
  <edge id=":11.10_0" function="internal">
    <lane id=":11.10_0_0" index="0" disallow="pedestrian tram rail_urban rail rail_electric rail_fast ship" speed="22.22" length="0.30" width="3.75" shape="659.03,429.20,20.00 658.83,428.97,20.00"/>
    <lane id=":11.10_0_1" index="1" disallow="pedestrian tram rail_urban rail rail_electric rail_fast ship" speed="22.22" length="0.30" width="3.75" shape="661.85,426.73,20.00 661.65,426.50,20.00"/>
    <lane id=":11.10_0_2" index="2" disallow="pedestrian tram rail_urban rail rail_electric rail_fast ship" speed="22.22" length="0.30" width="3.75" shape="664.67,424.26,20.00 664.48,424.04,20.00"/>
  </edge>
  <edge id=":14.13_0" function="internal">
    <lane id=":14.13_0_0" index="0" disallow="pedestrian tram rail_urban rail rail_electric rail_fast ship" speed="16.67" length="0.30" width="3.75" shape="1129.42,255.13,9.54 1129.38,254.83,9.54"/>
  </edge>
  <edge id=":16.15_0" function="internal">
    <lane id=":16.15_0_0" index="0" disallow="pedestrian tram rail_urban rail rail_electric rail_fast ship" speed="9.72" length="0.29" width="3.75" shape="1260.79,205.00,9.91 1260.82,205.29,9.91"/>
  </edge>
  <edge id=":19.18_0" function="internal">
    <lane id=":19.18_0_0" index="0" disallow="pedestrian tram rail_urban rail rail_electric rail_fast ship" speed="16.67" length="0.30" width="3.75" shape="1035.84,1332.28,11.31 1036.11,1332.40,11.32"/>
  </edge>
  <edge id=":2_0" function="internal">
    <lane id=":2_0_0" index="0" disallow="pedestrian tram rail_urban rail rail_electric rail_fast ship" speed="15.97" length="74.86" width="3.75" shape="846.85,618.76,20.00 833.86,607.31,20.00 815.67,591.87,20.00 798.79,577.78,20.00 789.73,570.38,20.00"/>
  </edge>
  <edge id=":2_1" function="internal">
    <lane id=":2_1_0" index="0" disallow="pedestrian tram rail_urban rail rail_electric rail_fast ship" speed="22.22" length="75.05" width="3.75" shape="846.85,618.76,20.00 792.34,567.07,20.00"/>
    <lane id=":2_1_1" index="1" disallow="pedestrian tram rail_urban rail rail_electric rail_fast ship" speed="22.22" length="75.05" width="3.75" shape="849.41,616.02,20.00 794.94,564.38,20.00"/>
    <lane id=":2_1_2" index="2" disallow="pedestrian tram rail_urban rail rail_electric rail_fast ship" speed="22.22" length="75.05" width="3.75" shape="851.97,613.28,20.00 797.55,561.68,20.00"/>
  </edge>
  <edge id=":21.20_0" function="internal">
    <lane id=":21.20_0_0" index="0" disallow="pedestrian tram rail_urban rail rail_electric rail_fast ship" speed="9.72" length="0.30" width="3.75" shape="702.75,341.17,13.96 702.94,340.94,13.96"/>
  </edge>
  <edge id=":3_0" function="internal">
    <lane id=":3_0_0" index="0" disallow="pedestrian tram rail_urban rail rail_electric rail_fast ship" speed="10.73" length="17.37" width="3.75" shape="507.41,164.80,19.99 505.19,169.16,19.99 504.28,173.35,20.00 504.66,177.35,20.00 506.35,181.16,20.00"/>
  </edge>
  <edge id=":3_1" function="internal">
    <lane id=":3_1_0" index="0" disallow="pedestrian tram rail_urban rail rail_electric rail_fast ship" speed="22.22" length="14.77" width="3.75" shape="498.54,168.64,20.00 506.35,181.16,20.00"/>
    <lane id=":3_1_1" index="1" disallow="pedestrian tram rail_urban rail rail_electric rail_fast ship" speed="22.22" length="14.77" width="3.75" shape="495.35,170.62,20.00 503.17,183.16,20.00"/>
    <lane id=":3_1_2" index="2" disallow="pedestrian tram rail_urban rail rail_electric rail_fast ship" speed="22.22" length="14.77" width="3.75" shape="492.17,172.60,20.00 499.99,185.15,20.00"/>
  </edge>
  <edge id=":3.2_0" function="internal">
    <lane id=":3.2_0_0" index="0" disallow="pedestrian tram rail_urban rail rail_electric rail_fast ship" speed="22.22" length="0.30" width="3.75" shape="204.31,854.53 204.54,854.32"/>
    <lane id=":3.2_0_1" index="1" disallow="pedestrian tram rail_urban rail rail_electric rail_fast ship" speed="22.22" length="0.30" width="3.75" shape="206.84,857.30 207.06,857.10"/>
    <lane id=":3.2_0_2" index="2" disallow="pedestrian tram rail_urban rail rail_electric rail_fast ship" speed="22.22" length="0.30" width="3.75" shape="209.36,860.07 209.58,859.88"/>
  </edge>
  <edge id=":4_0" function="internal">
    <lane id=":4_0_0" index="0" disallow="pedestrian tram rail_urban rail rail_electric rail_fast ship" speed="16.67" length="11.05" width="3.75" shape="630.55,603.96,1.95 641.39,601.84,2.00"/>
  </edge>
  <edge id=":4_1" function="internal">
    <lane id=":4_1_0" index="0" disallow="pedestrian tram rail_urban rail rail_electric rail_fast ship" speed="10.36" length="13.66" width="3.75" shape="630.55,603.96,1.95 633.79,603.76,1.96 636.91,604.46,1.98 639.91,606.06,1.99 642.80,608.55,2.00"/>
  </edge>
  <edge id=":5_0" function="internal">
    <lane id=":5_0_0" index="0" disallow="pedestrian tram rail_urban rail rail_electric rail_fast ship" speed="15.97" length="8.15" width="3.75" shape="561.41,641.19,0.00 554.55,645.60"/>
  </edge>
  <edge id=":6_0" function="internal">
    <lane id=":6_0_0" index="0" disallow="pedestrian tram rail_urban rail rail_electric rail_fast ship" speed="19.44" length="8.00" width="3.75" shape="1043.98,797.07,20.00 1038.03,791.73,20.00"/>
  </edge>
  <edge id=":6_1" function="internal">
    <lane id=":6_1_0" index="0" disallow="pedestrian tram rail_urban rail rail_electric rail_fast ship" speed="22.22" length="8.00" width="3.75" shape="1043.98,797.06,20.00 1038.03,791.73,20.00"/>
    <lane id=":6_1_1" index="1" disallow="pedestrian tram rail_urban rail rail_electric rail_fast ship" speed="22.22" length="8.00" width="3.75" shape="1046.49,794.27,20.00 1040.53,788.93,20.00"/>
    <lane id=":6_1_2" index="2" disallow="pedestrian tram rail_urban rail rail_electric rail_fast ship" speed="22.22" length="8.00" width="3.75" shape="1048.99,791.48,20.00 1043.03,786.14,20.00"/>
  </edge>
  <edge id=":7_0" function="internal">
    <lane id=":7_0_0" index="0" disallow="pedestrian tram rail_urban rail rail_electric rail_fast ship" speed="9.72" length="20.76" width="3.75" shape="1017.02,425.01,5.59 998.75,434.88,5.57"/>
  </edge>
  <edge id=":7_1" function="internal">
    <lane id=":7_1_0" index="0" disallow="pedestrian tram rail_urban rail rail_electric rail_fast ship" speed="9.72" length="20.39" width="3.75" shape="1014.24,421.76,5.60 1011.18,425.17,5.59 1007.03,428.94,5.59 1002.61,432.40,5.58 998.75,434.88,5.57"/>
  </edge>
  <edge id=":7.6_0" function="internal">
    <lane id=":7.6_0_0" index="0" disallow="pedestrian tram rail_urban rail rail_electric rail_fast ship" speed="22.22" length="0.30" width="3.75" shape="675.96,414.00,20.00 676.15,414.22,20.00"/>
    <lane id=":7.6_0_1" index="1" disallow="pedestrian tram rail_urban rail rail_electric rail_fast ship" speed="22.22" length="0.30" width="3.75" shape="673.13,416.46,20.00 673.33,416.69,20.00"/>
    <lane id=":7.6_0_2" index="2" disallow="pedestrian tram rail_urban rail rail_electric rail_fast ship" speed="22.22" length="0.30" width="3.75" shape="670.31,418.93,20.00 670.51,419.16,20.00"/>
  </edge>
  <edge id="-0" from="5" to="1.0" priority="1" type="driving" shape="552.69,635.57 551.48,636.38 550.27,637.19 549.05,638.00 547.83,638.80 546.61,639.61 545.38,640.41 544.15,641.21 542.91,642.01 541.68,642.80 540.43,643.60 539.19,644.39 537.94,645.18 536.69,645.97 535.43,646.76 534.17,647.54 532.90,648.33 531.64,649.11 530.36,649.89 529.09,650.68 527.81,651.46 526.53,652.24 525.24,653.02 523.95,653.79 522.65,654.57 521.35,655.35 520.05,656.12 518.75,656.90 517.44,657.67 516.12,658.45 514.80,659.22 513.48,660.00 512.16,660.77 510.83,661.55 509.49,662.32 508.16,663.10 506.81,663.87 505.47,664.65 504.12,665.42 502.77,666.20 501.41,666.98 500.05,667.75 498.68,668.53 497.31,669.31 495.94,670.09 494.56,670.87 493.18,671.65 491.80,672.44 490.41,673.22 489.01,674.01 487.62,674.79 486.21,675.58 484.81,676.37 483.40,677.16 481.98,677.96 480.57,678.75 479.14,679.55 477.72,680.34 476.29,681.14 474.85,681.95 473.41,682.75 471.97,683.56 470.52,684.37 469.07,685.18 467.62,685.99 466.16,686.81 464.69,687.63 463.22,688.45 461.75,689.27 460.28,690.10 458.79,690.93 457.31,691.76 455.82,692.60 454.33,693.44 452.83,694.28 451.32,695.13 449.82,695.97 448.31,696.83 446.79,697.68 445.27,698.54 443.75,699.41 442.22,700.27 440.68,701.14 439.15,702.02 437.61,702.90 436.06,703.78 434.51,704.67 432.95,705.56 431.39,706.45 429.83,707.35 428.26,708.26 426.69,709.17 425.11,710.08 423.53,711.00 421.94,711.92 420.35,712.85 418.76,713.78 417.16,714.72 415.55,715.66 413.94,716.61 412.33,717.57 410.71,718.52 409.09,719.49 407.46,720.46 405.83,721.43 404.19,722.41 402.55,723.40 400.90,724.39 399.25,725.39 397.60,726.39 395.94,727.41 394.27,728.42 392.60,729.44 390.93,730.47 389.25,731.51 387.57,732.55 385.88,733.60 384.19,734.65 382.49,735.71 380.79,736.78 379.08,737.86 377.37,738.94 375.65,740.03 373.93,741.12 372.21,742.22 370.47,743.33 368.74,744.45 367.00,745.58 365.25,746.71 363.50,747.85 361.75,748.99 359.99,750.15 358.22,751.31 356.45,752.48 354.68,753.66 352.90,754.85 351.12,756.04 349.33,757.24 347.53,758.45 345.73,759.67 343.93,760.90 342.12,762.13 340.31,763.38 338.49,764.63 336.66,765.89 334.83,767.16 333.00,768.44 331.16,769.73 329.32,771.03 327.47,772.33 325.61,773.65 323.75,774.97 321.89,776.31 320.02,777.65 318.15,779.00 316.27,780.37 314.38,781.74 312.49,783.12 310.60,784.51 308.70,785.91 306.79,787.32 304.88,788.74 302.97,790.17 301.04,791.62 299.12,793.07 297.19,794.53 295.25,796.00 293.31,797.48 291.36,798.98 289.41,800.48 287.45,802.00 285.49,803.52 283.52,805.06 281.55,806.61 279.57,808.16 277.59,809.73 275.60,811.31 273.61,812.91 271.61,814.51 269.60,816.12 267.59,817.75 265.58,819.39 263.56,821.04 261.53,822.70 259.50,824.37 257.46,826.06 255.42,827.75 253.37,829.46 251.32,831.18 249.26,832.92 247.19,834.66 245.13,836.42 243.05,838.19 240.97,839.97 238.88,841.77 236.79,843.58 234.70,845.40 232.59,847.23 230.49,849.08 228.37,850.94 226.25,852.81 224.13,854.69 222.00,856.59 219.86,858.50 217.72,860.43 215.58,862.37 213.42,864.32">
    <lane id="-0_0" index="0" disallow="pedestrian tram rail_urban rail rail_electric rail_fast ship" speed="22.22" length="405.23" width="3.75" shape="554.55,645.60 554.23,645.81 552.99,646.63 551.74,647.45 550.50,648.27 549.25,649.08 547.99,649.89 546.74,650.70 545.47,651.50 544.21,652.31 542.94,653.11 541.67,653.91 540.40,654.71 539.12,655.50 537.84,656.30 536.56,657.09 535.27,657.88 533.98,658.68 532.68,659.46 531.39,660.25 530.08,661.04 528.78,661.83 527.47,662.61 526.16,663.40 524.84,664.18 523.53,664.96 522.20,665.75 520.88,666.53 519.55,667.31 518.22,668.09 516.88,668.87 515.54,669.65 514.20,670.43 512.85,671.21 511.50,671.99 510.15,672.77 508.79,673.55 507.43,674.33 506.06,675.12 504.69,675.90 503.32,676.68 501.95,677.46 500.57,678.24 499.18,679.03 497.80,679.81 496.41,680.60 495.01,681.39 493.61,682.17 492.21,682.96 490.81,683.75 489.40,684.55 487.99,685.34 486.57,686.13 485.15,686.93 483.72,687.73 482.30,688.53 480.86,689.33 479.43,690.13 477.99,690.93 476.55,691.74 475.10,692.55 473.65,693.36 472.19,694.17 470.73,694.99 469.27,695.81 467.80,696.63 466.33,697.45 464.86,698.28 463.38,699.11 461.90,699.94 460.41,700.77 458.92,701.61 457.42,702.45 455.92,703.29 454.42,704.14 452.91,704.99 451.40,705.84 449.89,706.70 448.37,707.56 446.85,708.43 445.32,709.29 443.79,710.17 442.25,711.04 440.71,711.92 439.17,712.80 437.62,713.69 436.07,714.58 434.51,715.48 432.95,716.38 431.38,717.28 429.81,718.19 428.24,719.11 426.66,720.02 425.08,720.95 423.49,721.87 421.90,722.81 420.31,723.74 418.71,724.69 417.10,725.63 415.49,726.59 413.88,727.55 412.26,728.51 410.64,729.48 409.02,730.45 407.38,731.43 405.75,732.42 404.11,733.41 402.47,734.41 400.82,735.41 399.16,736.42 397.51,737.43 395.85,738.46 394.18,739.48 392.51,740.52 390.83,741.56 389.15,742.60 387.47,743.66 385.78,744.72 384.08,745.78 382.38,746.86 380.68,747.94 378.97,749.03 377.26,750.12 375.54,751.22 373.82,752.33 372.09,753.45 370.36,754.57 368.63,755.70 366.88,756.84 365.14,757.98 363.39,759.14 361.63,760.30 359.87,761.46 358.11,762.64 356.34,763.83 354.56,765.02 352.78,766.22 351.00,767.43 349.21,768.65 347.41,769.87 345.62,771.10 343.81,772.35 342.00,773.60 340.19,774.86 338.37,776.13 336.55,777.40 334.72,778.69 332.88,779.99 331.04,781.29 329.20,782.60 327.35,783.93 325.50,785.26 323.64,786.60 321.78,787.95 319.91,789.31 318.03,790.68 316.15,792.06 314.27,793.45 312.38,794.85 310.48,796.26 308.58,797.68 306.68,799.11 304.77,800.55 302.85,802.00 300.93,803.46 299.01,804.93 297.08,806.41 295.14,807.90 293.20,809.40 291.25,810.92 289.30,812.44 287.34,813.98 285.38,815.52 283.41,817.08 281.44,818.65 279.46,820.23 277.48,821.82 275.49,823.42 273.50,825.03 271.50,826.66 269.49,828.29 267.48,829.94 265.47,831.60 263.44,833.27 261.42,834.96 259.39,836.65 257.35,838.36 255.30,840.08 253.26,841.81 251.20,843.56 249.14,845.31 247.08,847.08 245.01,848.87 242.93,850.66 240.85,852.47 238.76,854.29 236.67,856.12 234.57,857.97 232.47,859.83 230.36,861.70 228.24,863.58 226.12,865.48 224.00,867.39 221.87,869.32 219.84,871.16" type="driving"/>
    <lane id="-0_1" index="1" disallow="pedestrian tram rail_urban rail rail_electric rail_fast ship" speed="22.22" length="405.23" width="3.75" shape="552.48,642.47 552.16,642.69 550.93,643.50 549.69,644.31 548.45,645.12 547.21,645.93 545.96,646.74 544.71,647.54 543.46,648.34 542.20,649.14 540.94,649.94 539.68,650.73 538.41,651.53 537.14,652.32 535.87,653.11 534.59,653.90 533.31,654.69 532.02,655.48 530.73,656.26 529.44,657.05 528.15,657.83 526.85,658.61 525.54,659.40 524.24,660.18 522.93,660.96 521.61,661.74 520.30,662.52 518.98,663.30 517.65,664.07 516.32,664.85 514.99,665.63 513.65,666.41 512.32,667.19 510.97,667.97 509.63,668.74 508.27,669.52 506.92,670.30 505.56,671.08 504.20,671.86 502.84,672.64 501.47,673.42 500.09,674.20 498.72,674.98 497.34,675.77 495.95,676.55 494.56,677.33 493.17,678.12 491.77,678.91 490.37,679.70 488.97,680.48 487.56,681.28 486.15,682.07 484.74,682.86 483.32,683.66 481.89,684.45 480.46,685.25 479.03,686.05 477.60,686.86 476.16,687.66 474.72,688.47 473.27,689.28 471.82,690.09 470.36,690.90 468.90,691.72 467.44,692.54 465.97,693.36 464.50,694.18 463.02,695.01 461.54,695.84 460.06,696.67 458.57,697.50 457.08,698.34 455.58,699.18 454.08,700.03 452.58,700.87 451.07,701.73 449.56,702.58 448.04,703.44 446.52,704.30 444.99,705.17 443.46,706.03 441.93,706.91 440.39,707.78 438.85,708.66 437.30,709.55 435.75,710.44 434.20,711.33 432.64,712.23 431.07,713.13 429.50,714.04 427.93,714.95 426.36,715.86 424.77,716.78 423.19,717.71 421.60,718.64 420.00,719.57 418.40,720.51 416.80,721.46 415.19,722.41 413.58,723.36 411.96,724.32 410.34,725.29 408.72,726.26 407.09,727.24 405.45,728.22 403.81,729.21 402.17,730.20 400.52,731.20 398.87,732.21 397.21,733.22 395.55,734.24 393.88,735.26 392.21,736.29 390.53,737.33 388.85,738.37 387.17,739.42 385.48,740.48 383.78,741.54 382.08,742.61 380.38,743.69 378.67,744.77 376.96,745.86 375.24,746.96 373.52,748.07 371.79,749.18 370.06,750.30 368.32,751.42 366.58,752.56 364.83,753.70 363.08,754.85 361.32,756.01 359.56,757.17 357.79,758.34 356.02,759.52 354.25,760.71 352.47,761.91 350.68,763.11 348.89,764.33 347.10,765.55 345.30,766.78 343.49,768.01 341.68,769.26 339.87,770.52 338.05,771.78 336.22,773.05 334.39,774.33 332.56,775.63 330.72,776.93 328.87,778.23 327.02,779.55 325.17,780.88 323.31,782.22 321.44,783.56 319.57,784.92 317.70,786.28 315.82,787.66 313.93,789.04 312.04,790.44 310.14,791.84 308.24,793.25 306.34,794.68 304.43,796.11 302.51,797.56 300.59,799.01 298.66,800.48 296.73,801.95 294.79,803.44 292.85,804.93 290.90,806.44 288.95,807.96 286.99,809.49 285.03,811.03 283.06,812.58 281.08,814.14 279.11,815.71 277.12,817.30 275.13,818.89 273.14,820.50 271.13,822.12 269.13,823.75 267.12,825.39 265.10,827.04 263.08,828.71 261.05,830.39 259.02,832.08 256.98,833.78 254.94,835.49 252.89,837.22 250.83,838.95 248.77,840.70 246.71,842.46 244.63,844.24 242.56,846.03 240.48,847.83 238.39,849.64 236.30,851.46 234.20,853.30 232.09,855.15 229.98,857.02 227.87,858.90 225.75,860.79 223.62,862.69 221.49,864.61 219.35,866.54 217.32,868.38" type="driving"/>
    <lane id="-0_2" index="2" disallow="pedestrian tram rail_urban rail rail_electric rail_fast ship" speed="22.22" length="405.23" width="3.75" shape="550.40,639.35 550.09,639.56 548.86,640.37 547.64,641.18 546.40,641.98 545.17,642.78 543.93,643.58 542.69,644.38 541.44,645.18 540.19,645.97 538.94,646.77 537.68,647.56 536.42,648.35 535.16,649.14 533.89,649.92 532.62,650.71 531.34,651.49 530.07,652.28 528.78,653.06 527.50,653.84 526.21,654.62 524.91,655.40 523.62,656.18 522.31,656.96 521.01,657.73 519.70,658.51 518.39,659.29 517.07,660.06 515.75,660.84 514.43,661.62 513.10,662.39 511.77,663.17 510.43,663.94 509.09,664.72 507.75,665.50 506.40,666.27 505.05,667.05 503.70,667.83 502.34,668.60 500.98,669.38 499.61,670.16 498.24,670.94 496.87,671.72 495.49,672.50 494.10,673.29 492.72,674.07 491.33,674.85 489.93,675.64 488.54,676.43 487.13,677.22 485.73,678.01 484.32,678.80 482.90,679.59 481.48,680.39 480.06,681.18 478.63,681.98 477.20,682.78 475.77,683.58 474.33,684.39 472.89,685.19 471.44,686.00 469.99,686.81 468.53,687.63 467.07,688.44 465.61,689.26 464.14,690.08 462.67,690.91 461.19,691.74 459.71,692.57 458.23,693.40 456.74,694.23 455.24,695.07 453.75,695.91 452.24,696.76 450.74,697.61 449.23,698.46 447.71,699.32 446.19,700.17 444.67,701.04 443.14,701.90 441.61,702.77 440.08,703.65 438.53,704.53 436.99,705.41 435.44,706.29 433.89,707.19 432.33,708.08 430.77,708.98 429.20,709.88 427.63,710.79 426.05,711.70 424.47,712.62 422.89,713.54 421.30,714.47 419.70,715.40 418.10,716.34 416.50,717.28 414.89,718.23 413.28,719.18 411.67,720.14 410.05,721.10 408.42,722.07 406.79,723.04 405.16,724.02 403.52,725.01 401.87,726.00 400.22,726.99 398.57,728.00 396.91,729.01 395.25,730.02 393.59,731.04 391.91,732.07 390.24,733.10 388.56,734.14 386.87,735.19 385.18,736.24 383.49,737.30 381.79,738.37 380.08,739.44 378.37,740.52 376.66,741.61 374.94,742.70 373.22,743.80 371.49,744.91 369.76,746.03 368.02,747.15 366.27,748.28 364.53,749.42 362.78,750.56 361.02,751.72 359.26,752.88 357.49,754.04 355.72,755.22 353.94,756.40 352.16,757.60 350.37,758.80 348.58,760.01 346.79,761.22 344.98,762.45 343.18,763.68 341.37,764.92 339.55,766.17 337.73,767.43 335.90,768.70 334.07,769.98 332.24,771.27 330.40,772.56 328.55,773.86 326.70,775.18 324.84,776.50 322.98,777.83 321.12,779.17 319.24,780.52 317.37,781.88 315.49,783.25 313.60,784.63 311.71,786.02 309.81,787.42 307.91,788.83 306.00,790.25 304.09,791.68 302.17,793.11 300.25,794.56 298.32,796.02 296.39,797.49 294.45,798.97 292.51,800.46 290.56,801.97 288.60,803.48 286.64,805.00 284.68,806.54 282.71,808.08 280.73,809.64 278.75,811.20 276.77,812.78 274.78,814.37 272.78,815.97 270.78,817.58 268.77,819.21 266.76,820.84 264.74,822.49 262.72,824.15 260.69,825.82 258.66,827.50 256.62,829.19 254.57,830.90 252.52,832.62 250.47,834.35 248.41,836.09 246.34,837.85 244.27,839.61 242.19,841.39 240.11,843.19 238.02,844.99 235.93,846.81 233.83,848.64 231.72,850.49 229.61,852.34 227.50,854.21 225.37,856.09 223.25,857.99 221.12,859.90 218.98,861.82 216.83,863.76 214.80,865.61" type="driving"/>
  </edge>
  <edge id="-1" from="1.0" to="1.end" priority="1" type="driving" shape="213.42,864.32 210.87,866.65 208.35,868.96 205.86,871.25 203.39,873.53 200.95,875.80 198.55,878.05 196.17,880.28 193.81,882.50 191.49,884.71 189.19,886.90 186.92,889.08 184.67,891.24 182.46,893.39 180.27,895.53 178.10,897.65 175.96,899.76 173.85,901.85 171.76,903.93 169.69,906.00 167.66,908.05 165.64,910.09 163.65,912.12 161.69,914.14 159.74,916.14 157.83,918.13 155.93,920.11 154.06,922.07 152.21,924.03 150.39,925.97 148.58,927.89 146.80,929.81 145.04,931.71 143.30,933.61 141.59,935.49 139.89,937.36 138.22,939.22 136.57,941.06 134.93,942.90 133.32,944.72 131.73,946.54 130.16,948.34 128.60,950.13 127.07,951.91 125.56,953.68 124.06,955.44 122.58,957.19 121.13,958.93 119.69,960.66 118.26,962.38 116.86,964.09 115.47,965.79 114.10,967.48 112.75,969.16 111.41,970.84 110.09,972.50 108.79,974.15 107.50,975.80 106.23,977.43 104.97,979.06 103.73,980.68 102.50,982.29 101.29,983.89 100.09,985.48 98.91,987.07 97.74,988.64 96.59,990.21 95.45,991.77 94.32,993.32 93.20,994.87 92.10,996.41 91.01,997.93 89.94,999.46 88.87,1000.97 87.82,1002.48 86.78,1003.98 85.75,1005.48 84.73,1006.96 83.72,1008.45 82.73,1009.92 81.74,1011.39 80.76,1012.85 79.80,1014.31 78.84,1015.75 77.89,1017.20 76.96,1018.64 76.03,1020.07 75.11,1021.49 74.20,1022.91 73.30,1024.33 72.40,1025.74 71.51,1027.14 70.63,1028.54 69.76,1029.94 68.90,1031.33 68.04,1032.71 67.19,1034.10 66.34,1035.47 65.51,1036.84 64.67,1038.21 63.85,1039.57 63.02,1040.93 62.21,1042.29 61.40,1043.64 60.59,1044.99 59.79,1046.33 58.99,1047.67 58.20,1049.01 57.41,1050.35 56.62,1051.68 55.84,1053.01 55.06,1054.33 54.28,1055.65 53.50,1056.97 52.73,1058.29 51.96,1059.61 51.19,1060.92 50.43,1062.23 49.66,1063.54 48.90,1064.84 48.13,1066.15 47.37,1067.45 46.61,1068.75 45.85,1070.05 45.08,1071.35 44.32,1072.64 43.56,1073.94 42.80,1075.23 42.03,1076.53 41.26,1077.82 40.50,1079.11 39.73,1080.40 38.96,1081.69 38.18,1082.98 37.41,1084.27 36.63,1085.56 35.85,1086.85 35.06,1088.14 34.28,1089.43 33.48,1090.72 32.69,1092.01 31.89,1093.30 31.08,1094.60 30.28,1095.89 29.46,1097.18 28.64,1098.48 27.82,1099.77 26.99,1101.07 26.16,1102.37 25.31,1103.67 24.47,1104.97 23.61,1106.27 22.75,1107.57 21.88,1108.88 21.01,1110.19 20.13,1111.50 19.24,1112.81 18.34,1114.12 17.43,1115.44 16.52,1116.76 15.59,1118.08 14.66,1119.41 13.72,1120.74 12.77,1122.07 11.81,1123.40 10.84,1124.74 9.86,1126.08 8.87,1127.42 7.86,1128.77 6.85,1130.12 5.83,1131.48 4.79,1132.84 3.75,1134.20 2.69,1135.57">
    <lane id="-1_0" index="0" disallow="pedestrian tram rail_urban rail rail_electric rail_fast ship" speed="22.22" length="344.07" width="3.75" shape="219.62,871.36 217.19,873.57 214.69,875.86 212.21,878.14 209.76,880.41 207.35,882.65 204.95,884.89 202.59,887.11 200.26,889.31 197.95,891.50 195.67,893.68 193.42,895.84 191.19,897.98 188.99,900.11 186.82,902.23 184.67,904.34 182.55,906.42 180.45,908.50 178.38,910.56 176.34,912.61 174.32,914.65 172.32,916.67 170.35,918.68 168.41,920.67 166.48,922.66 164.59,924.63 162.71,926.58 160.86,928.53 159.03,930.46 157.22,932.38 155.44,934.29 153.68,936.18 151.94,938.07 150.22,939.94 148.52,941.80 146.85,943.64 145.20,945.48 143.56,947.30 141.95,949.12 140.36,950.92 138.78,952.71 137.23,954.49 135.70,956.26 134.19,958.02 132.69,959.76 131.22,961.50 129.76,963.23 128.32,964.94 126.90,966.65 125.50,968.35 124.11,970.03 122.74,971.71 121.39,973.37 120.06,975.03 118.74,976.68 117.44,978.32 116.16,979.95 114.89,981.57 113.64,983.18 112.40,984.78 111.18,986.37 109.97,987.96 108.78,989.53 107.60,991.10 106.43,992.66 105.28,994.21 104.15,995.76 103.02,997.29 101.91,998.82 100.82,1000.34 99.73,1001.85 98.66,1003.36 97.60,1004.86 96.55,1006.35 95.52,1007.84 94.49,1009.31 93.48,1010.78 92.47,1012.25 91.48,1013.71 90.50,1015.16 89.53,1016.61 88.57,1018.04 87.62,1019.48 86.67,1020.91 85.74,1022.33 84.82,1023.75 83.90,1025.16 82.99,1026.56 82.10,1027.97 81.21,1029.36 80.32,1030.75 79.45,1032.14 78.58,1033.52 77.72,1034.90 76.86,1036.27 76.02,1037.64 75.17,1039.01 74.34,1040.37 73.51,1041.73 72.68,1043.08 71.87,1044.43 71.05,1045.78 70.24,1047.12 69.44,1048.46 68.64,1049.80 67.84,1051.13 67.05,1052.46 66.26,1053.79 65.48,1055.12 64.69,1056.44 63.91,1057.76 63.14,1059.08 62.36,1060.40 61.59,1061.72 60.82,1063.03 60.05,1064.34 59.28,1065.65 58.52,1066.96 57.75,1068.27 56.99,1069.58 56.22,1070.88 55.46,1072.19 54.70,1073.49 53.93,1074.79 53.17,1076.10 52.40,1077.40 51.64,1078.70 50.87,1080.00 50.10,1081.30 49.33,1082.60 48.55,1083.91 47.78,1085.21 47.00,1086.51 46.22,1087.81 45.44,1089.11 44.65,1090.41 43.86,1091.72 43.07,1093.02 42.27,1094.33 41.47,1095.63 40.66,1096.94 39.85,1098.25 39.04,1099.56 38.22,1100.87 37.39,1102.18 36.56,1103.50 35.72,1104.81 34.88,1106.13 34.03,1107.45 33.18,1108.77 32.31,1110.10 31.44,1111.42 30.57,1112.75 29.68,1114.08 28.79,1115.41 27.89,1116.75 26.99,1118.08 26.07,1119.43 25.15,1120.77 24.21,1122.11 23.27,1123.46 22.32,1124.82 21.36,1126.17 20.39,1127.53 19.41,1128.89 18.42,1130.26 17.41,1131.63 16.40,1133.00 15.38,1134.38 14.35,1135.76 13.30,1137.14 12.24,1138.53 11.17,1139.92 10.11,1141.30" type="driving"/>