<?xml version='1.0' encoding='UTF-8'?>
<!-- generated on 2022-09-06 02:38:55 by Eclipse SUMO netconvert Version 1.13.0
<configuration xmlns:xsi="http://www.w3.org/2001/XMLSchema-instance" xsi:noNamespaceSchemaLocation="http://sumo.dlr.de/xsd/netconvertConfiguration.xsd">

    <input>
        <opendrive-files value="map\1\76313244\76313244.xodr"/>
    </input>

    <output>
        <output-file value="C:\Users\LinGe\AppData\Local\Temp\tmprpvqp0a2\76313244.net.xml"/>
    </output>

    <processing>
        <geometry.max-grade.fix value="false"/>
    </processing>

    <tls_building>
        <tls.left-green.time value="0"/>
    </tls_building>

    <junctions>
        <rectangular-lane-cut value="true"/>
    </junctions>

    <report>
        <aggregate-warnings value="5"/>
    </report>

</configuration>
-->
<net xmlns:xsi="http://www.w3.org/2001/XMLSchema-instance" version="1.9" junctionCornerDetail="5" rectangularLaneCut="true" limitTurnSpeed="5.50" xsi:noNamespaceSchemaLocation="http://sumo.dlr.de/xsd/net_file.xsd">
  <location netOffset="1.56,217.49" convBoundary="0.00,0.00,1102.73,1418.75" origBoundary="-1.56,-217.49,1101.18,1201.26" projParameter="!"/>
  <type id="bidirectional" priority="1" speed="1.39" disallow="pedestrian tram rail_urban rail rail_electric rail_fast ship" width="3.65"/>
  <type id="border" priority="0" speed="1.39" disallow="all" discard="1" width="0.10"/>
  <type id="driving" priority="1" speed="13.89" disallow="pedestrian tram rail_urban rail rail_electric rail_fast ship" width="3.65"/>
  <type id="entry" priority="1" speed="22.22" disallow="pedestrian tram rail_urban rail rail_electric rail_fast ship" width="3.65"/>
  <type id="exit" priority="1" speed="22.22" disallow="pedestrian tram rail_urban rail rail_electric rail_fast ship" width="3.65"/>
  <type id="median" priority="0" speed="1.39" disallow="all" discard="1" width="0.10"/>
  <type id="mwyEntry" priority="1" speed="22.22" allow="private emergency authority army vip passenger hov taxi bus coach delivery truck trailer motorcycle evehicle custom1 custom2" width="3.65"/>
  <type id="mwyExit" priority="1" speed="22.22" allow="private emergency authority army vip passenger hov taxi bus coach delivery truck trailer motorcycle evehicle custom1 custom2" width="3.65"/>
  <type id="none" priority="0" speed="1.39" disallow="all" discard="1" width="1.00"/>
  <type id="offRamp" priority="1" speed="22.22" allow="private emergency authority army vip passenger hov taxi bus coach delivery truck trailer motorcycle evehicle custom1 custom2" width="3.65"/>
  <type id="onRamp" priority="1" speed="22.22" allow="private emergency authority army vip passenger hov taxi bus coach delivery truck trailer motorcycle evehicle custom1 custom2" width="3.65"/>
  <type id="parking" priority="1" speed="1.39" disallow="pedestrian tram rail_urban rail rail_electric rail_fast ship" width="2.50"/>
  <type id="rail" priority="3" speed="33.33" allow="rail_urban rail rail_electric rail_fast" width="3.65"/>
  <type id="restricted" priority="0" speed="13.89" disallow="all" width="3.65"/>
  <type id="roadWorks" priority="0" speed="1.39" allow="authority" width="3.65"/>
  <type id="shoulder" priority="0" speed="1.39" disallow="all" discard="1" width="1.00"/>
  <type id="special1" priority="1" speed="22.22" allow="custom1" discard="1" width="3.65"/>
  <type id="special2" priority="1" speed="22.22" allow="custom2" discard="1" width="3.65"/>
  <type id="special3" priority="1" speed="22.22" allow="custom1 custom2" discard="1" width="3.65"/>
  <type id="stop" priority="1" speed="13.89" disallow="pedestrian tram rail_urban rail rail_electric rail_fast ship" width="3.65"/>
  <type id="tram" priority="2" speed="13.89" allow="tram" width="3.65"/>
  <edge id=":0_0" function="internal">
    <lane id=":0_0_0" index="0" disallow="pedestrian tram rail_urban rail rail_electric rail_fast ship" speed="22.22" length="66.19" width="3.75" shape="966.62,406.30 952.98,414.58 935.43,425.89 919.60,436.40 911.08,442.27"/>
  </edge>
  <edge id=":0_1" function="internal">
    <lane id=":0_1_0" index="0" disallow="pedestrian tram rail_urban rail rail_electric rail_fast ship" speed="22.22" length="66.30" width="3.75" shape="966.62,406.30 908.79,438.68"/>
    <lane id=":0_1_1" index="1" disallow="pedestrian tram rail_urban rail rail_electric rail_fast ship" speed="22.22" length="66.30" width="3.75" shape="964.80,403.03 906.95,435.41"/>
    <lane id=":0_1_2" index="2" disallow="pedestrian tram rail_urban rail rail_electric rail_fast ship" speed="22.22" length="66.30" width="3.75" shape="962.98,399.75 905.11,432.15"/>
  </edge>
  <edge id=":1_0" function="internal">
    <lane id=":1_0_0" index="0" disallow="pedestrian tram rail_urban rail rail_electric rail_fast ship" speed="18.06" length="24.95" width="3.75" shape="423.26,769.15 417.13,774.86 412.75,780.09 409.88,784.74 408.24,788.70"/>
  </edge>
  <edge id=":1_1" function="internal">
    <lane id=":1_1_0" index="0" disallow="pedestrian tram rail_urban rail rail_electric rail_fast ship" speed="22.22" length="25.57" width="3.75" shape="423.26,769.15 403.65,785.54"/>
    <lane id=":1_1_1" index="1" disallow="pedestrian tram rail_urban rail rail_electric rail_fast ship" speed="22.22" length="25.57" width="3.75" shape="420.86,766.27 401.24,782.66"/>
    <lane id=":1_1_2" index="2" disallow="pedestrian tram rail_urban rail rail_electric rail_fast ship" speed="22.22" length="25.57" width="3.75" shape="418.46,763.39 398.83,779.79"/>
  </edge>
  <edge id=":10_0" function="internal">
    <lane id=":10_0_0" index="0" disallow="pedestrian tram rail_urban rail rail_electric rail_fast ship" speed="15.28" length="42.60" width="3.75" shape="939.18,390.44,0.10 945.44,388.17,0.09 955.61,384.23,0.06 967.36,379.23,0.03 978.35,373.79"/>
  </edge>
  <edge id=":10_1" function="internal">
    <lane id=":10_1_0" index="0" disallow="pedestrian tram rail_urban rail rail_electric rail_fast ship" speed="22.22" length="42.08" width="3.75" shape="941.56,394.26 978.35,373.79"/>
    <lane id=":10_1_1" index="1" disallow="pedestrian tram rail_urban rail rail_electric rail_fast ship" speed="22.22" length="42.08" width="3.75" shape="943.39,397.53 980.17,377.07"/>
    <lane id=":10_1_2" index="2" disallow="pedestrian tram rail_urban rail rail_electric rail_fast ship" speed="22.22" length="42.08" width="3.75" shape="945.22,400.81 981.99,380.35"/>
  </edge>
  <edge id=":11_0" function="internal">
    <lane id=":11_0_0" index="0" disallow="pedestrian tram rail_urban rail rail_electric rail_fast ship" speed="19.44" length="38.54" width="3.75" shape="440.56,839.56,4.54 433.14,839.23,4.53 421.30,839.06,4.52 409.46,839.07,4.50 402.04,839.30,4.49"/>
  </edge>
  <edge id=":11_1" function="internal">
    <lane id=":11_1_0" index="0" disallow="pedestrian tram rail_urban rail rail_electric rail_fast ship" speed="15.28" length="37.99" width="3.75" shape="439.83,835.44,4.55 402.04,839.30,4.49"/>
  </edge>
  <edge id=":12_0" function="internal">
    <lane id=":12_0_0" index="0" disallow="pedestrian tram rail_urban rail rail_electric rail_fast ship" speed="16.67" length="23.11" width="3.75" shape="763.44,488.37,0.01 767.61,488.75,0.01 772.69,488.36,0.01 778.67,486.74,0.00 785.55,483.41"/>
  </edge>
  <edge id=":12_1" function="internal">
    <lane id=":12_1_0" index="0" disallow="pedestrian tram rail_urban rail rail_electric rail_fast ship" speed="22.22" length="21.40" width="3.75" shape="767.13,494.34 785.55,483.41"/>
    <lane id=":12_1_1" index="1" disallow="pedestrian tram rail_urban rail rail_electric rail_fast ship" speed="22.22" length="21.40" width="3.75" shape="769.05,497.56 787.45,486.64"/>
    <lane id=":12_1_2" index="2" disallow="pedestrian tram rail_urban rail rail_electric rail_fast ship" speed="22.22" length="21.40" width="3.75" shape="770.98,500.78 789.36,489.87"/>
  </edge>
  <edge id=":13_0" function="internal">
    <lane id=":13_0_0" index="0" disallow="pedestrian tram rail_urban rail rail_electric rail_fast ship" speed="18.06" length="26.18" width="3.75" shape="616.09,823.50,20.00 615.83,819.09,20.00 614.39,813.50,20.00 611.44,806.92,20.00 606.63,799.57,20.00"/>
  </edge>
  <edge id=":13_1" function="internal">
    <lane id=":13_1_0" index="0" disallow="pedestrian tram rail_urban rail rail_electric rail_fast ship" speed="22.22" length="24.56" width="3.75" shape="621.43,819.13,20.00 606.63,799.57,20.00"/>
    <lane id=":13_1_1" index="1" disallow="pedestrian tram rail_urban rail rail_electric rail_fast ship" speed="22.22" length="24.56" width="3.75" shape="624.43,816.88,20.00 609.61,797.30,20.00"/>
    <lane id=":13_1_2" index="2" disallow="pedestrian tram rail_urban rail rail_electric rail_fast ship" speed="22.22" length="24.56" width="3.75" shape="627.43,814.62,20.00 612.59,795.02,20.00"/>
  </edge>
  <edge id=":13.12_0" function="internal">
    <lane id=":13.12_0_0" index="0" disallow="pedestrian tram rail_urban rail rail_electric rail_fast ship" speed="22.22" length="0.30" width="3.75" shape="594.04,746.60,20.00 594.24,746.84,20.00"/>
    <lane id=":13.12_0_1" index="1" disallow="pedestrian tram rail_urban rail rail_electric rail_fast ship" speed="22.22" length="0.30" width="3.75" shape="591.13,748.96,20.00 591.32,749.19,20.00"/>
    <lane id=":13.12_0_2" index="2" disallow="pedestrian tram rail_urban rail rail_electric rail_fast ship" speed="22.22" length="0.30" width="3.75" shape="588.21,751.32,20.00 588.40,751.55,20.00"/>
  </edge>
  <edge id=":19.18_0" function="internal">
    <lane id=":19.18_0_0" index="0" disallow="pedestrian tram rail_urban rail rail_electric rail_fast ship" speed="22.22" length="0.30" width="3.75" shape="576.53,761.13,20.00 576.35,760.90,20.00"/>
    <lane id=":19.18_0_1" index="1" disallow="pedestrian tram rail_urban rail rail_electric rail_fast ship" speed="22.22" length="0.30" width="3.75" shape="579.45,758.77,20.00 579.26,758.54,20.00"/>
    <lane id=":19.18_0_2" index="2" disallow="pedestrian tram rail_urban rail rail_electric rail_fast ship" speed="22.22" length="0.30" width="3.75" shape="582.37,756.42,20.00 582.18,756.18,20.00"/>
  </edge>
  <edge id=":2_0" function="internal">
    <lane id=":2_0_0" index="0" disallow="pedestrian tram rail_urban rail rail_electric rail_fast ship" speed="16.67" length="41.17" width="3.75" shape="153.83,969.99 162.53,961.67,0.04 170.88,952.68,0.09 177.66,944.77,0.13 181.67,939.73,0.15"/>
  </edge>
  <edge id=":2_1" function="internal">
    <lane id=":2_1_0" index="0" disallow="pedestrian tram rail_urban rail rail_electric rail_fast ship" speed="22.22" length="41.38" width="3.75" shape="153.83,969.99 185.04,942.82"/>
    <lane id=":2_1_1" index="1" disallow="pedestrian tram rail_urban rail rail_electric rail_fast ship" speed="22.22" length="41.38" width="3.75" shape="156.29,972.82 187.50,945.65"/>
    <lane id=":2_1_2" index="2" disallow="pedestrian tram rail_urban rail rail_electric rail_fast ship" speed="22.22" length="41.38" width="3.75" shape="158.75,975.64 189.96,948.48"/>
  </edge>
  <edge id=":2.1_0" function="internal">
    <lane id=":2.1_0_0" index="0" disallow="pedestrian tram rail_urban rail rail_electric rail_fast ship" speed="22.22" length="0.30" width="3.75" shape="594.10,633.37 593.86,633.55"/>
    <lane id=":2.1_0_1" index="1" disallow="pedestrian tram rail_urban rail rail_electric rail_fast ship" speed="22.22" length="0.30" width="3.75" shape="591.89,630.34 591.65,630.51"/>
    <lane id=":2.1_0_2" index="2" disallow="pedestrian tram rail_urban rail rail_electric rail_fast ship" speed="22.22" length="0.30" width="3.75" shape="589.69,627.30 589.44,627.48"/>
  </edge>
  <edge id=":22.21_0" function="internal">
    <lane id=":22.21_0_0" index="0" disallow="pedestrian tram rail_urban rail rail_electric rail_fast ship" speed="22.22" length="0.30" width="3.75" shape="744.66,748.76,8.43 744.66,749.06,8.44"/>
  </edge>
  <edge id=":24.23_0" function="internal">
    <lane id=":24.23_0_0" index="0" disallow="pedestrian tram rail_urban rail rail_electric rail_fast ship" speed="19.44" length="0.30" width="3.75" shape="504.50,855.50,7.57 504.22,855.40,7.56"/>
  </edge>
  <edge id=":27.26_0" function="internal">
    <lane id=":27.26_0_0" index="0" disallow="pedestrian tram rail_urban rail rail_electric rail_fast ship" speed="11.11" length="0.30" width="3.75" shape="272.03,659.94,8.34 272.01,659.64,8.35"/>
  </edge>
  <edge id=":29.28_0" function="internal">
    <lane id=":29.28_0_0" index="0" disallow="pedestrian tram rail_urban rail rail_electric rail_fast ship" speed="8.33" length="0.29" width="3.75" shape="535.42,479.81,9.82 535.71,479.85,9.81"/>
  </edge>
  <edge id=":3_0" function="internal">
    <lane id=":3_0_0" index="0" disallow="pedestrian tram rail_urban rail rail_electric rail_fast ship" speed="15.28" length="62.31" width="3.75" shape="131.25,238.87,20.00 142.19,249.64,20.00 156.51,262.94,20.00 169.63,274.78,20.00 176.96,281.20,20.00"/>
  </edge>
  <edge id=":3_1" function="internal">
    <lane id=":3_1_0" index="0" disallow="pedestrian tram rail_urban rail rail_electric rail_fast ship" speed="22.22" length="62.42" width="3.75" shape="131.25,238.87,20.00 174.07,284.30,20.00"/>
    <lane id=":3_1_1" index="1" disallow="pedestrian tram rail_urban rail rail_electric rail_fast ship" speed="22.22" length="62.42" width="3.75" shape="128.53,241.44,20.00 171.34,286.87,20.00"/>
    <lane id=":3_1_2" index="2" disallow="pedestrian tram rail_urban rail rail_electric rail_fast ship" speed="22.22" length="62.42" width="3.75" shape="125.80,244.01,20.00 168.60,289.44,20.00"/>
  </edge>
  <edge id=":31.30_0" function="internal">
    <lane id=":31.30_0_0" index="0" disallow="pedestrian tram rail_urban rail rail_electric rail_fast ship" speed="11.11" length="0.30" width="3.75" shape="1076.84,160.36,12.32 1076.97,160.63,12.32"/>
  </edge>
  <edge id=":33.32_0" function="internal">
    <lane id=":33.32_0_0" index="0" disallow="pedestrian tram rail_urban rail rail_electric rail_fast ship" speed="11.11" length="0.30" width="3.75" shape="391.51,258.02,6.81 391.44,257.73,6.80"/>
  </edge>
  <edge id=":35.34_0" function="internal">
    <lane id=":35.34_0_0" index="0" disallow="pedestrian tram rail_urban rail rail_electric rail_fast ship" speed="13.89" length="0.28" width="3.75" shape="499.69,879.32,9.97 499.97,879.37,10.00"/>
  </edge>
  <edge id=":4_0" function="internal">
    <lane id=":4_0_0" index="0" disallow="pedestrian tram rail_urban rail rail_electric rail_fast ship" speed="16.67" length="23.16" width="3.75" shape="97.46,203.04,20.00 103.09,208.31,20.00 108.19,211.89,20.00 112.71,214.17,20.00 116.64,215.52,20.00"/>
  </edge>
  <edge id=":4_1" function="internal">
    <lane id=":4_1_0" index="0" disallow="pedestrian tram rail_urban rail rail_electric rail_fast ship" speed="22.22" length="23.68" width="3.75" shape="97.46,203.04,20.00 113.71,220.27,20.00"/>
    <lane id=":4_1_1" index="1" disallow="pedestrian tram rail_urban rail rail_electric rail_fast ship" speed="22.22" length="23.68" width="3.75" shape="94.73,205.62,20.00 110.98,222.84,20.00"/>
    <lane id=":4_1_2" index="2" disallow="pedestrian tram rail_urban rail rail_electric rail_fast ship" speed="22.22" length="23.68" width="3.75" shape="92.00,208.19,20.00 108.25,225.42,20.00"/>
  </edge>
  <edge id=":5_0" function="internal">
    <lane id=":5_0_0" index="0" disallow="pedestrian tram rail_urban rail rail_electric rail_fast ship" speed="20.83" length="115.12" width="3.75" shape="855.61,1150.35,20.00 786.99,1057.92,20.00"/>
  </edge>
  <edge id=":5_1" function="internal">
    <lane id=":5_1_0" index="0" disallow="pedestrian tram rail_urban rail rail_electric rail_fast ship" speed="22.22" length="115.18" width="3.75" shape="855.61,1150.35,20.00 790.26,1055.53,20.00"/>
    <lane id=":5_1_1" index="1" disallow="pedestrian tram rail_urban rail rail_electric rail_fast ship" speed="22.22" length="115.18" width="3.75" shape="858.70,1148.23,20.00 793.34,1053.39,20.00"/>
    <lane id=":5_1_2" index="2" disallow="pedestrian tram rail_urban rail rail_electric rail_fast ship" speed="22.22" length="115.18" width="3.75" shape="861.79,1146.11,20.00 796.42,1051.25,20.00"/>
  </edge>
  <edge id=":6_0" function="internal">
    <lane id=":6_0_0" index="0" disallow="pedestrian tram rail_urban rail rail_electric rail_fast ship" speed="16.67" length="8.00" width="3.75" shape="980.64,1333.95,20.00 976.15,1327.33,20.00"/>
  </edge>
  <edge id=":6_1" function="internal">
    <lane id=":6_1_0" index="0" disallow="pedestrian tram rail_urban rail rail_electric rail_fast ship" speed="22.22" length="8.00" width="3.75" shape="980.64,1333.95,20.00 976.15,1327.33,20.00"/>
    <lane id=":6_1_1" index="1" disallow="pedestrian tram rail_urban rail rail_electric rail_fast ship" speed="22.22" length="8.00" width="3.75" shape="983.75,1331.84,20.00 979.25,1325.22,20.00"/>
    <lane id=":6_1_2" index="2" disallow="pedestrian tram rail_urban rail rail_electric rail_fast ship" speed="22.22" length="8.00" width="3.75" shape="986.85,1329.74,20.00 982.35,1323.12,20.00"/>
  </edge>
  <edge id=":7_0" function="internal">
    <lane id=":7_0_0" index="0" disallow="pedestrian tram rail_urban rail rail_electric rail_fast ship" speed="22.22" length="187.12" width="3.75" shape="867.95,1121.15,20.00 970.09,1277.93,20.00"/>
  </edge>
  <edge id=":7_1" function="internal">
    <lane id=":7_1_0" index="0" disallow="pedestrian tram rail_urban rail rail_electric rail_fast ship" speed="22.22" length="186.98" width="3.75" shape="864.73,1123.44,20.00 970.09,1277.93,20.00"/>
    <lane id=":7_1_1" index="1" disallow="pedestrian tram rail_urban rail rail_electric rail_fast ship" speed="22.22" length="186.98" width="3.75" shape="861.63,1125.57,20.00 966.99,1280.04,20.00"/>
    <lane id=":7_1_2" index="2" disallow="pedestrian tram rail_urban rail rail_electric rail_fast ship" speed="22.22" length="186.98" width="3.75" shape="858.54,1127.69,20.00 963.89,1282.14,20.00"/>
  </edge>
  <edge id=":7.6_0" function="internal">
    <lane id=":7.6_0_0" index="0" disallow="pedestrian tram rail_urban rail rail_electric rail_fast ship" speed="22.22" length="0.30" width="3.75" shape="580.48,615.15 580.72,614.97"/>
    <lane id=":7.6_0_1" index="1" disallow="pedestrian tram rail_urban rail rail_electric rail_fast ship" speed="22.22" length="0.30" width="3.75" shape="582.68,618.18 582.93,618.00"/>
    <lane id=":7.6_0_2" index="2" disallow="pedestrian tram rail_urban rail rail_electric rail_fast ship" speed="22.22" length="0.30" width="3.75" shape="584.89,621.21 585.13,621.04"/>
  </edge>
  <edge id=":8_0" function="internal">
    <lane id=":8_0_0" index="0" disallow="pedestrian tram rail_urban rail rail_electric rail_fast ship" speed="20.83" length="73.74" width="3.75" shape="302.81,876.84,0.00 293.47,883.59,0.00 276.19,896.55,0.00 257.57,910.84,0.00 244.22,921.60"/>
  </edge>
  <edge id=":8_1" function="internal">
    <lane id=":8_1_0" index="0" disallow="pedestrian tram rail_urban rail rail_electric rail_fast ship" speed="22.22" length="73.40" width="3.75" shape="299.81,873.70 244.22,921.60"/>
    <lane id=":8_1_1" index="1" disallow="pedestrian tram rail_urban rail rail_electric rail_fast ship" speed="22.22" length="73.40" width="3.75" shape="297.37,870.85 241.76,918.76"/>
    <lane id=":8_1_2" index="2" disallow="pedestrian tram rail_urban rail rail_electric rail_fast ship" speed="22.22" length="73.40" width="3.75" shape="294.93,868.00 239.31,915.92"/>
  </edge>
  <edge id=":9_0" function="internal">
    <lane id=":9_0_0" index="0" disallow="pedestrian tram rail_urban rail rail_electric rail_fast ship" speed="16.67" length="108.69" width="3.75" shape="171.42,320.67,20.00 160.39,307.76,20.00 138.38,282.36,20.00 115.01,255.65,20.00 99.93,238.80,20.00"/>
  </edge>
  <edge id=":9_1" function="internal">
    <lane id=":9_1_0" index="0" disallow="pedestrian tram rail_urban rail rail_electric rail_fast ship" speed="22.22" length="108.47" width="3.75" shape="174.31,317.75,20.00 99.93,238.80,20.00"/>
    <lane id=":9_1_1" index="1" disallow="pedestrian tram rail_urban rail rail_electric rail_fast ship" speed="22.22" length="108.47" width="3.75" shape="177.04,315.18,20.00 102.66,236.23,20.00"/>
    <lane id=":9_1_2" index="2" disallow="pedestrian tram rail_urban rail rail_electric rail_fast ship" speed="22.22" length="108.47" width="3.75" shape="179.78,312.61,20.00 105.39,233.66,20.00"/>
  </edge>
  <edge id="-0" from="0.begin" to="0" priority="1" type="driving" shape="1102.73,319.11 1101.64,319.76 1100.52,320.42 1099.39,321.09 1098.24,321.77 1097.07,322.46 1095.88,323.15 1094.67,323.86 1093.44,324.58 1092.20,325.30 1090.94,326.03 1089.66,326.78 1088.36,327.53 1087.04,328.28 1085.71,329.05 1084.36,329.83 1082.99,330.61 1081.60,331.41 1080.20,332.21 1078.78,333.02 1077.35,333.84 1075.89,334.66 1074.42,335.50 1072.94,336.34 1071.44,337.19 1069.92,338.05 1068.38,338.92 1066.83,339.79 1065.27,340.68 1063.68,341.57 1062.09,342.47 1060.47,343.37 1058.85,344.29 1057.20,345.21 1055.54,346.14 1053.87,347.08 1052.18,348.02 1050.48,348.97 1048.76,349.93 1047.03,350.90 1045.29,351.87 1043.53,352.86 1041.75,353.85 1039.97,354.84 1038.16,355.85 1036.35,356.86 1034.52,357.87 1032.68,358.90 1030.82,359.93 1028.96,360.97 1027.08,362.01 1025.18,363.07 1023.28,364.13 1021.36,365.19 1019.42,366.26 1017.48,367.34 1015.52,368.43 1013.56,369.52 1011.58,370.62 1009.58,371.73 1007.58,372.84 1005.56,373.96 1003.54,375.08 1001.50,376.21 999.45,377.35 997.39,378.49 995.32,379.64 993.24,380.79 991.14,381.96 989.04,383.12 986.93,384.30 984.80,385.47 982.67,386.66 980.53,387.85 978.37,389.05 976.21,390.25 974.04,391.45 971.85,392.67 969.66,393.89 967.46,395.11 965.25,396.34 963.03,397.58 960.80,398.82 958.56,400.06">
    <lane id="-0_0" index="0" disallow="pedestrian tram rail_urban rail rail_electric rail_fast ship" speed="22.22" length="161.51" width="3.75" shape="1107.53,327.16 1106.43,327.82 1105.30,328.48 1104.16,329.16 1103.00,329.85 1101.82,330.54 1100.62,331.24 1099.40,331.96 1098.16,332.68 1096.91,333.41 1095.64,334.14 1094.35,334.89 1093.05,335.64 1091.72,336.41 1090.38,337.18 1089.03,337.96 1087.65,338.75 1086.26,339.54 1084.85,340.35 1083.43,341.16 1081.98,341.98 1080.53,342.81 1079.05,343.65 1077.56,344.50 1076.05,345.35 1074.53,346.21 1072.99,347.08 1071.44,347.96 1069.87,348.84 1068.28,349.74 1066.68,350.64 1065.07,351.55 1063.44,352.46 1061.79,353.39 1060.13,354.32 1058.45,355.26 1056.76,356.20 1055.06,357.16 1053.34,358.12 1051.60,359.09 1049.86,360.06 1048.09,361.04 1046.32,362.03 1044.53,363.03 1042.73,364.04 1040.91,365.05 1039.08,366.07 1037.24,367.09 1035.38,368.12 1033.51,369.16 1031.63,370.21 1029.73,371.26 1027.83,372.32 1025.91,373.39 1023.97,374.46 1022.03,375.54 1020.07,376.63 1018.10,377.72 1016.12,378.82 1014.13,379.92 1012.13,381.04 1010.11,382.15 1008.09,383.28 1006.05,384.41 1004.00,385.55 1001.94,386.69 999.87,387.84 997.79,388.99 995.69,390.15 993.59,391.32 991.48,392.49 989.35,393.67 987.22,394.86 985.08,396.05 982.92,397.24 980.76,398.44 978.59,399.65 976.41,400.86 974.22,402.08 972.02,403.30 969.81,404.53 967.59,405.77 966.62,406.30" type="driving"/>
    <lane id="-0_1" index="1" disallow="pedestrian tram rail_urban rail rail_electric rail_fast ship" speed="22.22" length="161.51" width="3.75" shape="1105.61,323.94 1104.51,324.59 1103.39,325.26 1102.25,325.93 1101.09,326.62 1099.92,327.31 1098.72,328.01 1097.51,328.72 1096.28,329.44 1095.03,330.16 1093.76,330.90 1092.47,331.64 1091.17,332.40 1089.85,333.16 1088.51,333.93 1087.16,334.71 1085.79,335.49 1084.40,336.29 1082.99,337.09 1081.57,337.90 1080.13,338.72 1078.67,339.55 1077.20,340.39 1075.71,341.23 1074.21,342.09 1072.69,342.95 1071.15,343.82 1069.60,344.69 1068.03,345.58 1066.44,346.47 1064.84,347.37 1063.23,348.28 1061.60,349.19 1059.95,350.12 1058.29,351.05 1056.62,351.98 1054.93,352.93 1053.23,353.88 1051.51,354.84 1049.78,355.81 1048.03,356.79 1046.27,357.77 1044.49,358.76 1042.70,359.76 1040.90,360.76 1039.09,361.77 1037.26,362.79 1035.41,363.81 1033.56,364.85 1031.69,365.89 1029.81,366.93 1027.91,367.98 1026.01,369.04 1024.09,370.11 1022.15,371.18 1020.21,372.26 1018.25,373.35 1016.29,374.44 1014.30,375.54 1012.31,376.64 1010.31,377.76 1008.29,378.87 1006.27,380.00 1004.23,381.13 1002.18,382.27 1000.12,383.41 998.05,384.56 995.97,385.71 993.87,386.87 991.77,388.04 989.66,389.21 987.53,390.39 985.40,391.58 983.26,392.77 981.10,393.96 978.94,395.16 976.77,396.37 974.59,397.58 972.39,398.80 970.19,400.03 967.98,401.26 965.76,402.49 964.80,403.03" type="driving"/>
    <lane id="-0_2" index="2" disallow="pedestrian tram rail_urban rail rail_electric rail_fast ship" speed="22.22" length="161.51" width="3.75" shape="1103.69,320.72 1102.60,321.37 1101.48,322.03 1100.34,322.70 1099.19,323.38 1098.02,324.07 1096.83,324.77 1095.62,325.48 1094.39,326.20 1093.14,326.92 1091.88,327.66 1090.60,328.40 1089.30,329.15 1087.98,329.91 1086.64,330.68 1085.29,331.45 1083.92,332.24 1082.54,333.03 1081.13,333.84 1079.71,334.65 1078.27,335.47 1076.82,336.29 1075.35,337.13 1073.86,337.97 1072.36,338.82 1070.84,339.68 1069.31,340.55 1067.75,341.43 1066.19,342.31 1064.60,343.20 1063.01,344.10 1061.39,345.01 1059.76,345.92 1058.12,346.84 1056.46,347.77 1054.79,348.71 1053.10,349.66 1051.40,350.61 1049.68,351.57 1047.95,352.54 1046.20,353.51 1044.44,354.49 1042.67,355.48 1040.88,356.48 1039.08,357.48 1037.26,358.49 1035.43,359.51 1033.59,360.54 1031.74,361.57 1029.87,362.61 1027.99,363.65 1026.09,364.71 1024.19,365.77 1022.27,366.83 1020.33,367.90 1018.39,368.98 1016.43,370.07 1014.47,371.16 1012.49,372.26 1010.49,373.37 1008.49,374.48 1006.47,375.60 1004.45,376.72 1002.41,377.85 1000.36,378.99 998.30,380.13 996.23,381.28 994.15,382.43 992.05,383.59 989.95,384.76 987.84,385.93 985.71,387.11 983.58,388.30 981.44,389.49 979.28,390.68 977.12,391.89 974.95,393.09 972.76,394.31 970.57,395.53 968.37,396.75 966.16,397.98 963.94,399.21 962.98,399.75" type="driving"/>
  </edge>
  <edge id="-1" from="0" to="2.1" priority="1" type="driving" shape="958.56,400.06 956.97,400.95 955.37,401.84 953.76,402.74 952.15,403.63 950.54,404.53 948.92,405.44 947.30,406.34 945.67,407.25 944.04,408.16 942.41,409.07 940.77,409.99 939.13,410.90 937.48,411.82 935.83,412.75 934.18,413.67 932.52,414.60 930.86,415.53 929.20,416.46 927.53,417.39 925.86,418.33 924.19,419.27 922.51,420.21 920.83,421.15 919.14,422.10 917.45,423.05 915.76,424.00 914.07,424.95 912.37,425.90 910.67,426.86 908.97,427.82 907.26,428.78 905.55,429.74 903.84,430.71 902.13,431.68 900.41,432.65 898.69,433.62 896.97,434.59 895.24,435.57 893.51,436.54 891.78,437.52 890.05,438.50 888.31,439.49 886.57,440.47 884.83,441.46 883.09,442.45 881.34,443.44 879.60,444.43 877.85,445.43 876.10,446.42 874.34,447.42 872.59,448.42 870.83,449.42 869.07,450.43 867.31,451.43 865.54,452.44 863.78,453.45 862.01,454.46 860.24,455.47 858.47,456.49 856.70,457.50 854.92,458.52 853.15,459.54 851.37,460.56 849.59,461.58 847.81,462.60 846.03,463.63 844.25,464.65 842.47,465.68 840.68,466.71 838.89,467.74 837.11,468.77 835.32,469.81 833.53,470.84 831.74,471.88 829.95,472.92 828.15,473.96 826.36,475.00 824.57,476.04 822.77,477.08 820.98,478.13 819.18,479.17 817.39,480.22 815.59,481.27 813.79,482.32 811.99,483.37 810.19,484.42 808.39,485.47 806.59,486.53 804.79,487.58 802.99,488.64 801.19,489.70 799.39,490.76 797.59,491.82 795.79,492.88 793.99,493.94 792.19,495.00 790.39,496.07 788.59,497.13 786.79,498.20 784.99,499.26 783.19,500.33 781.39,501.40 779.59,502.47 777.79,503.54 776.00,504.61 774.20,505.68 772.40,506.76 770.60,507.83 768.81,508.91 767.01,509.98 765.22,511.06 763.42,512.13 761.63,513.21 759.84,514.29 758.05,515.37 756.26,516.45 754.47,517.53 752.68,518.61 750.89,519.69 749.11,520.77 747.32,521.85 745.54,522.94 743.75,524.02 741.97,525.11 740.19,526.19 738.42,527.28 736.64,528.36 734.86,529.45 733.09,530.53 731.32,531.62 729.55,532.71 727.78,533.80 726.01,534.89 724.24,535.97 722.48,537.06 720.72,538.15 718.96,539.24 717.20,540.33 715.45,541.42 713.69,542.51 711.94,543.60 710.19,544.69 708.44,545.79 706.70,546.88 704.96,547.97 703.21,549.06 701.48,550.15 699.74,551.24 698.01,552.34 696.28,553.43 694.55,554.52 692.82,555.61 691.10,556.70 689.38,557.80 687.66,558.89 685.95,559.98 684.24,561.07 682.53,562.16 680.82,563.26 679.12,564.35 677.42,565.44 675.72,566.53 674.03,567.62 672.34,568.72 670.65,569.81 668.96,570.90 667.28,571.99 665.61,573.08 663.93,574.17 662.26,575.26 660.59,576.35 658.93,577.44 657.27,578.53 655.61,579.62 653.96,580.70 652.31,581.79 650.67,582.88 649.02,583.97 647.39,585.06 645.75,586.14 644.12,587.23 642.50,588.31 640.88,589.40 639.26,590.48 637.64,591.57 636.03,592.65 634.43,593.73 632.83,594.82 631.23,595.90 629.64,596.98 628.05,598.06 626.47,599.14 624.89,600.22 623.32,601.30 621.75,602.37 620.18,603.45 618.62,604.53 617.06,605.60 615.51,606.68 613.97,607.75 612.43,608.83 610.89,609.90 609.36,610.97 607.83,612.04 606.31,613.11 604.79,614.18 603.28,615.25 601.78,616.32 600.28,617.38 598.78,618.45 597.29,619.51 595.81,620.58 594.33,621.64 592.85,622.70 591.38,623.76 589.92,624.82 588.47,625.88">