<?xml version='1.0' encoding='UTF-8'?>
<!-- generated on 2022-11-13 00:07:32 by Eclipse SUMO netconvert Version 1.13.0
<configuration xmlns:xsi="http://www.w3.org/2001/XMLSchema-instance" xsi:noNamespaceSchemaLocation="http://sumo.dlr.de/xsd/netconvertConfiguration.xsd">

    <input>
        <opendrive-files value="map_v4\18\352713\352713.xodr"/>
    </input>

    <output>
        <output-file value="C:\Users\LinGe\AppData\Local\Temp\tmps_eo0pb5\352713.net.xml"/>
    </output>

    <processing>
        <geometry.max-grade.fix value="false"/>
    </processing>

    <tls_building>
        <tls.left-green.time value="0"/>
    </tls_building>

    <junctions>
        <rectangular-lane-cut value="true"/>
    </junctions>

    <report>
        <aggregate-warnings value="5"/>
    </report>

</configuration>
-->
<net xmlns:xsi="http://www.w3.org/2001/XMLSchema-instance" version="1.9" junctionCornerDetail="5" rectangularLaneCut="true" limitTurnSpeed="5.50" xsi:noNamespaceSchemaLocation="http://sumo.dlr.de/xsd/net_file.xsd">
  <location netOffset="1.56,222.50" convBoundary="0.00,0.00,1102.73,1423.75" origBoundary="-1.56,-222.50,1101.18,1201.26" projParameter="!"/>
  <type id="bidirectional" priority="1" speed="1.39" disallow="pedestrian tram rail_urban rail rail_electric rail_fast ship" width="3.65"/>
  <type id="border" priority="0" speed="1.39" disallow="all" discard="1" width="0.10"/>
  <type id="driving" priority="1" speed="13.89" disallow="pedestrian tram rail_urban rail rail_electric rail_fast ship" width="3.65"/>
  <type id="entry" priority="1" speed="22.22" disallow="pedestrian tram rail_urban rail rail_electric rail_fast ship" width="3.65"/>
  <type id="exit" priority="1" speed="22.22" disallow="pedestrian tram rail_urban rail rail_electric rail_fast ship" width="3.65"/>
  <type id="median" priority="0" speed="1.39" disallow="all" discard="1" width="0.10"/>
  <type id="mwyEntry" priority="1" speed="22.22" allow="private emergency authority army vip passenger hov taxi bus coach delivery truck trailer motorcycle evehicle custom1 custom2" width="3.65"/>
  <type id="mwyExit" priority="1" speed="22.22" allow="private emergency authority army vip passenger hov taxi bus coach delivery truck trailer motorcycle evehicle custom1 custom2" width="3.65"/>
  <type id="none" priority="0" speed="1.39" disallow="all" discard="1" width="1.00"/>
  <type id="offRamp" priority="1" speed="22.22" allow="private emergency authority army vip passenger hov taxi bus coach delivery truck trailer motorcycle evehicle custom1 custom2" width="3.65"/>
  <type id="onRamp" priority="1" speed="22.22" allow="private emergency authority army vip passenger hov taxi bus coach delivery truck trailer motorcycle evehicle custom1 custom2" width="3.65"/>
  <type id="parking" priority="1" speed="1.39" disallow="pedestrian tram rail_urban rail rail_electric rail_fast ship" width="2.50"/>
  <type id="rail" priority="3" speed="33.33" allow="rail_urban rail rail_electric rail_fast" width="3.65"/>
  <type id="restricted" priority="0" speed="13.89" disallow="all" width="3.65"/>
  <type id="roadWorks" priority="0" speed="1.39" allow="authority" width="3.65"/>
  <type id="shoulder" priority="0" speed="1.39" disallow="all" discard="1" width="1.00"/>
  <type id="special1" priority="1" speed="22.22" allow="custom1" discard="1" width="3.65"/>
  <type id="special2" priority="1" speed="22.22" allow="custom2" discard="1" width="3.65"/>
  <type id="special3" priority="1" speed="22.22" allow="custom1 custom2" discard="1" width="3.65"/>
  <type id="stop" priority="1" speed="13.89" disallow="pedestrian tram rail_urban rail rail_electric rail_fast ship" width="3.65"/>
  <type id="tram" priority="2" speed="13.89" allow="tram" width="3.65"/>
  <edge id=":0_0" function="internal">
    <lane id=":0_0_0" index="0" disallow="pedestrian tram rail_urban rail rail_electric rail_fast ship" speed="15.97" length="50.36" width="3.75" shape="972.44,448.22 962.60,457.44,0.03 951.79,468.46,0.06 942.52,478.36,0.09 937.26,484.23,0.11"/>
  </edge>
  <edge id=":0_1" function="internal">
    <lane id=":0_1_0" index="0" disallow="pedestrian tram rail_urban rail rail_electric rail_fast ship" speed="22.22" length="50.51" width="3.75" shape="972.44,448.22 934.15,481.16"/>
    <lane id=":0_1_1" index="1" disallow="pedestrian tram rail_urban rail rail_electric rail_fast ship" speed="22.22" length="50.51" width="3.75" shape="970.00,445.38 931.70,478.32"/>
    <lane id=":0_1_2" index="2" disallow="pedestrian tram rail_urban rail rail_electric rail_fast ship" speed="22.22" length="50.51" width="3.75" shape="967.55,442.54 929.26,475.47"/>
  </edge>
  <edge id=":1_0" function="internal">
    <lane id=":1_0_0" index="0" disallow="pedestrian tram rail_urban rail rail_electric rail_fast ship" speed="22.22" length="90.66" width="3.75" shape="679.57,667.27 694.37,654.15,0.02 715.97,634.36,0.06 736.05,615.69,0.10 746.33,605.95,0.11"/>
  </edge>
  <edge id=":1_1" function="internal">
    <lane id=":1_1_0" index="0" disallow="pedestrian tram rail_urban rail rail_electric rail_fast ship" speed="22.22" length="90.73" width="3.75" shape="679.57,667.27 749.09,609.02"/>
    <lane id=":1_1_1" index="1" disallow="pedestrian tram rail_urban rail rail_electric rail_fast ship" speed="22.22" length="90.73" width="3.75" shape="681.96,670.15 751.51,611.89"/>
    <lane id=":1_1_2" index="2" disallow="pedestrian tram rail_urban rail rail_electric rail_fast ship" speed="22.22" length="90.73" width="3.75" shape="684.36,673.04 753.93,614.75"/>
  </edge>
  <edge id=":10_0" function="internal">
    <lane id=":10_0_0" index="0" disallow="pedestrian tram rail_urban rail rail_electric rail_fast ship" speed="15.28" length="22.10" width="3.75" shape="265.16,537.25,20.00 265.21,533.14,20.00 264.59,528.30,20.00 262.75,522.74,20.00 259.16,516.44,20.00"/>
  </edge>
  <edge id=":10_1" function="internal">
    <lane id=":10_1_0" index="0" disallow="pedestrian tram rail_urban rail rail_electric rail_fast ship" speed="22.22" length="20.37" width="3.75" shape="270.82,533.14,20.00 259.16,516.44,20.00"/>
    <lane id=":10_1_1" index="1" disallow="pedestrian tram rail_urban rail rail_electric rail_fast ship" speed="22.22" length="20.37" width="3.75" shape="273.90,530.99,20.00 262.24,514.29,20.00"/>
    <lane id=":10_1_2" index="2" disallow="pedestrian tram rail_urban rail rail_electric rail_fast ship" speed="22.22" length="20.37" width="3.75" shape="276.97,528.84,20.00 265.31,512.15,20.00"/>
  </edge>
  <edge id=":11_0" function="internal">
    <lane id=":11_0_0" index="0" disallow="pedestrian tram rail_urban rail rail_electric rail_fast ship" speed="9.72" length="60.67" width="3.75" shape="762.04,883.94,13.16 762.90,894.79,13.17 764.63,914.17,13.18 766.47,933.53,13.20 767.62,944.36,13.21"/>
  </edge>
  <edge id=":11_1" function="internal">
    <lane id=":11_1_0" index="0" disallow="pedestrian tram rail_urban rail rail_electric rail_fast ship" speed="10.42" length="60.36" width="3.75" shape="758.14,884.74,13.16 767.62,944.36,13.21"/>
  </edge>
  <edge id=":11.10_0" function="internal">
    <lane id=":11.10_0_0" index="0" disallow="pedestrian tram rail_urban rail rail_electric rail_fast ship" speed="22.22" length="0.30" width="3.75" shape="504.08,814.47,20.00 504.27,814.70,20.00"/>
    <lane id=":11.10_0_1" index="1" disallow="pedestrian tram rail_urban rail rail_electric rail_fast ship" speed="22.22" length="0.30" width="3.75" shape="501.16,816.83,20.00 501.35,817.06,20.00"/>
    <lane id=":11.10_0_2" index="2" disallow="pedestrian tram rail_urban rail rail_electric rail_fast ship" speed="22.22" length="0.30" width="3.75" shape="498.24,819.18,20.00 498.44,819.42,20.00"/>
  </edge>
  <edge id=":15.14_0" function="internal">
    <lane id=":15.14_0_0" index="0" disallow="pedestrian tram rail_urban rail rail_electric rail_fast ship" speed="22.22" length="0.30" width="3.75" shape="486.57,829.00,20.00 486.38,828.76,20.00"/>
    <lane id=":15.14_0_1" index="1" disallow="pedestrian tram rail_urban rail rail_electric rail_fast ship" speed="22.22" length="0.30" width="3.75" shape="489.49,826.64,20.00 489.30,826.41,20.00"/>
    <lane id=":15.14_0_2" index="2" disallow="pedestrian tram rail_urban rail rail_electric rail_fast ship" speed="22.22" length="0.30" width="3.75" shape="492.40,824.28,20.00 492.22,824.05,20.00"/>
  </edge>
  <edge id=":19.18_0" function="internal">
    <lane id=":19.18_0_0" index="0" disallow="pedestrian tram rail_urban rail rail_electric rail_fast ship" speed="11.11" length="0.30" width="3.75" shape="483.44,1063.75,7.86 483.16,1063.65,7.85"/>
  </edge>
  <edge id=":2_0" function="internal">
    <lane id=":2_0_0" index="0" disallow="pedestrian tram rail_urban rail rail_electric rail_fast ship" speed="19.44" length="119.34" width="3.75" shape="114.18,266.28,20.00 185.01,362.32,20.00"/>
  </edge>
  <edge id=":2_1" function="internal">
    <lane id=":2_1_0" index="0" disallow="pedestrian tram rail_urban rail rail_electric rail_fast ship" speed="22.22" length="119.41" width="3.75" shape="114.18,266.28,20.00 181.75,364.72,20.00"/>
    <lane id=":2_1_1" index="1" disallow="pedestrian tram rail_urban rail rail_electric rail_fast ship" speed="22.22" length="119.41" width="3.75" shape="111.08,268.40,20.00 178.66,366.84,20.00"/>
    <lane id=":2_1_2" index="2" disallow="pedestrian tram rail_urban rail rail_electric rail_fast ship" speed="22.22" length="119.41" width="3.75" shape="107.99,270.52,20.00 175.57,368.97,20.00"/>
  </edge>
  <edge id=":2.1_0" function="internal">
    <lane id=":2.1_0_0" index="0" disallow="pedestrian tram rail_urban rail rail_electric rail_fast ship" speed="22.22" length="0.30" width="3.75" shape="489.99,847.31 489.75,847.49"/>
    <lane id=":2.1_0_1" index="1" disallow="pedestrian tram rail_urban rail rail_electric rail_fast ship" speed="22.22" length="0.30" width="3.75" shape="487.79,844.28 487.54,844.45"/>
    <lane id=":2.1_0_2" index="2" disallow="pedestrian tram rail_urban rail rail_electric rail_fast ship" speed="22.22" length="0.30" width="3.75" shape="485.58,841.25 485.34,841.42"/>
  </edge>
  <edge id=":21.20_0" function="internal">
    <lane id=":21.20_0_0" index="0" disallow="pedestrian tram rail_urban rail rail_electric rail_fast ship" speed="16.67" length="0.30" width="3.75" shape="432.66,548.70,11.68 432.95,548.75,11.67"/>
  </edge>
  <edge id=":24.23_0" function="internal">
    <lane id=":24.23_0_0" index="0" disallow="pedestrian tram rail_urban rail rail_electric rail_fast ship" speed="9.72" length="4.70" width="3.75" shape="762.84,822.26,8.01 762.63,817.63,8.78"/>
  </edge>
  <edge id=":27.26_0" function="internal">
    <lane id=":27.26_0_0" index="0" disallow="pedestrian tram rail_urban rail rail_electric rail_fast ship" speed="22.22" length="0.30" width="3.75" shape="471.85,24.20,10.85 471.57,24.31,10.86"/>
  </edge>
  <edge id=":29.28_0" function="internal">
    <lane id=":29.28_0_0" index="0" disallow="pedestrian tram rail_urban rail rail_electric rail_fast ship" speed="8.33" length="0.30" width="3.75" shape="158.61,1255.58,14.15 158.36,1255.43,14.15"/>
  </edge>
  <edge id=":3_0" function="internal">
    <lane id=":3_0_0" index="0" disallow="pedestrian tram rail_urban rail rail_electric rail_fast ship" speed="16.67" length="46.17" width="3.75" shape="961.06,1343.75,20.00 951.80,1334.88,20.00 941.22,1325.71,20.00 931.85,1318.02,20.00 926.16,1313.56,20.00"/>
  </edge>
  <edge id=":3_1" function="internal">
    <lane id=":3_1_0" index="0" disallow="pedestrian tram rail_urban rail rail_electric rail_fast ship" speed="22.22" length="46.29" width="3.75" shape="961.06,1343.75,20.00 929.07,1310.28,20.00"/>
    <lane id=":3_1_1" index="1" disallow="pedestrian tram rail_urban rail rail_electric rail_fast ship" speed="22.22" length="46.29" width="3.75" shape="963.77,1341.16,20.00 931.78,1307.69,20.00"/>
    <lane id=":3_1_2" index="2" disallow="pedestrian tram rail_urban rail rail_electric rail_fast ship" speed="22.22" length="46.29" width="3.75" shape="966.48,1338.56,20.00 934.49,1305.10,20.00"/>
  </edge>
  <edge id=":31.30_0" function="internal">
    <lane id=":31.30_0_0" index="0" disallow="pedestrian tram rail_urban rail rail_electric rail_fast ship" speed="11.11" length="0.30" width="3.75" shape="0.18,412.41,14.25 0.16,412.11,14.25"/>
  </edge>
  <edge id=":4_0" function="internal">
    <lane id=":4_0_0" index="0" disallow="pedestrian tram rail_urban rail rail_electric rail_fast ship" speed="16.67" length="40.35" width="3.75" shape="168.02,1049.24,0.15 162.00,1051.15,0.12 152.46,1054.56,0.09 141.35,1059.07,0.04 130.62,1064.25"/>
  </edge>
  <edge id=":4_1" function="internal">
    <lane id=":4_1_0" index="0" disallow="pedestrian tram rail_urban rail rail_electric rail_fast ship" speed="22.22" length="39.71" width="3.75" shape="165.49,1045.22 130.62,1064.25"/>
    <lane id=":4_1_1" index="1" disallow="pedestrian tram rail_urban rail rail_electric rail_fast ship" speed="22.22" length="39.71" width="3.75" shape="163.69,1041.93 128.83,1060.96"/>
    <lane id=":4_1_2" index="2" disallow="pedestrian tram rail_urban rail rail_electric rail_fast ship" speed="22.22" length="39.71" width="3.75" shape="161.89,1038.64 127.04,1057.66"/>
  </edge>
  <edge id=":5_0" function="internal">
    <lane id=":5_0_0" index="0" disallow="pedestrian tram rail_urban rail rail_electric rail_fast ship" speed="11.11" length="3.00" width="3.75" shape="777.32,1218.32,15.18 774.74,1216.81,15.10"/>
  </edge>
  <edge id=":5_1" function="internal">
    <lane id=":5_1_0" index="0" disallow="pedestrian tram rail_urban rail rail_electric rail_fast ship" speed="11.11" length="3.00" width="3.75" shape="777.32,1218.32,15.18 774.74,1216.81,15.14"/>
  </edge>
  <edge id=":5.4_0" function="internal">
    <lane id=":5.4_0_0" index="0" disallow="pedestrian tram rail_urban rail rail_electric rail_fast ship" speed="22.22" length="0.30" width="3.75" shape="476.37,829.09 476.61,828.91"/>
    <lane id=":5.4_0_1" index="1" disallow="pedestrian tram rail_urban rail rail_electric rail_fast ship" speed="22.22" length="0.30" width="3.75" shape="478.58,832.12 478.82,831.94"/>
    <lane id=":5.4_0_2" index="2" disallow="pedestrian tram rail_urban rail rail_electric rail_fast ship" speed="22.22" length="0.30" width="3.75" shape="480.78,835.15 481.03,834.98"/>
  </edge>
  <edge id=":6_0" function="internal">
    <lane id=":6_0_0" index="0" disallow="pedestrian tram rail_urban rail rail_electric rail_fast ship" speed="19.44" length="83.58" width="3.75" shape="935.85,444.18,0.00 946.30,436.35,0.00 966.13,421.15,0.00 987.31,404.64,0.00 1001.84,392.90"/>
  </edge>
  <edge id=":6_1" function="internal">
    <lane id=":6_1_0" index="0" disallow="pedestrian tram rail_urban rail rail_electric rail_fast ship" speed="22.22" length="83.30" width="3.75" shape="938.72,447.25 1001.84,392.90"/>
    <lane id=":6_1_1" index="1" disallow="pedestrian tram rail_urban rail rail_electric rail_fast ship" speed="22.22" length="83.30" width="3.75" shape="941.17,450.09 1004.29,395.74"/>
    <lane id=":6_1_2" index="2" disallow="pedestrian tram rail_urban rail rail_electric rail_fast ship" speed="22.22" length="83.30" width="3.75" shape="943.61,452.94 1006.73,398.58"/>
  </edge>
  <edge id=":7_0" function="internal">
    <lane id=":7_0_0" index="0" disallow="pedestrian tram rail_urban rail rail_electric rail_fast ship" speed="15.97" length="91.01" width="3.75" shape="901.78,1242.75,20.00 910.96,1253.61,20.00 928.94,1274.47,20.00 948.28,1296.63,20.00 961.56,1311.37,20.00"/>
  </edge>
  <edge id=":7_1" function="internal">
    <lane id=":7_1_0" index="0" disallow="pedestrian tram rail_urban rail rail_electric rail_fast ship" speed="22.22" length="90.76" width="3.75" shape="898.88,1245.74,20.00 961.56,1311.37,20.00"/>
    <lane id=":7_1_1" index="1" disallow="pedestrian tram rail_urban rail rail_electric rail_fast ship" speed="22.22" length="90.76" width="3.75" shape="896.17,1248.33,20.00 958.85,1313.96,20.00"/>
    <lane id=":7_1_2" index="2" disallow="pedestrian tram rail_urban rail rail_electric rail_fast ship" speed="22.22" length="90.76" width="3.75" shape="893.45,1250.92,20.00 956.14,1316.55,20.00"/>
  </edge>
  <edge id=":8_0" function="internal">
    <lane id=":8_0_0" index="0" disallow="pedestrian tram rail_urban rail rail_electric rail_fast ship" speed="9.72" length="26.01" width="3.75" shape="765.99,796.25,7.94 765.06,801.63,7.95 764.16,809.11,7.97 763.39,816.61,8.00 762.86,822.06,8.01"/>
  </edge>
  <edge id=":8_1" function="internal">
    <lane id=":8_1_0" index="0" disallow="pedestrian tram rail_urban rail rail_electric rail_fast ship" speed="9.03" length="31.17" width="3.75" shape="765.99,796.25,7.94 758.30,826.46,8.01"/>
  </edge>
  <edge id=":9_0" function="internal">
    <lane id=":9_0_0" index="0" disallow="pedestrian tram rail_urban rail rail_electric rail_fast ship" speed="22.22" length="133.85" width="3.75" shape="387.51,651.72,20.00 399.19,669.07,20.00 423.02,703.98,20.00 448.05,740.33,20.00 463.34,762.02,20.00"/>
  </edge>
  <edge id=":9_1" function="internal">
    <lane id=":9_1_0" index="0" disallow="pedestrian tram rail_urban rail rail_electric rail_fast ship" speed="22.22" length="133.71" width="3.75" shape="384.34,654.25,20.00 463.34,762.02,20.00"/>
    <lane id=":9_1_1" index="1" disallow="pedestrian tram rail_urban rail rail_electric rail_fast ship" speed="22.22" length="133.71" width="3.75" shape="381.29,656.44,20.00 460.35,764.27,20.00"/>
    <lane id=":9_1_2" index="2" disallow="pedestrian tram rail_urban rail rail_electric rail_fast ship" speed="22.22" length="133.71" width="3.75" shape="378.25,658.62,20.00 457.36,766.53,20.00"/>
  </edge>
  <edge id="-0" from="0.begin" to="0" priority="1" type="driving" shape="1102.73,324.11 1101.96,324.76 1101.17,325.42 1100.36,326.10 1099.53,326.79 1098.68,327.51 1097.81,328.24 1096.92,328.99 1096.02,329.75 1095.09,330.53 1094.14,331.33 1093.18,332.15 1092.20,332.98 1091.20,333.83 1090.18,334.69 1089.14,335.57 1088.08,336.47 1087.01,337.38 1085.92,338.31 1084.81,339.25 1083.68,340.21 1082.54,341.19 1081.38,342.18 1080.20,343.18 1079.00,344.21 1077.79,345.24 1076.55,346.29 1075.31,347.36 1074.04,348.44 1072.76,349.54 1071.46,350.65 1070.15,351.78 1068.82,352.92 1067.47,354.07 1066.11,355.24 1064.73,356.42 1063.33,357.62 1061.92,358.83 1060.49,360.05 1059.05,361.29 1057.59,362.54 1056.12,363.81 1054.63,365.09 1053.13,366.38 1051.61,367.68 1050.08,369.00 1048.53,370.33 1046.97,371.68 1045.39,373.03 1043.80,374.40 1042.19,375.78 1040.57,377.18 1038.94,378.58 1037.29,380.00 1035.63,381.43 1033.95,382.88 1032.26,384.33 1030.56,385.80 1028.84,387.28 1027.11,388.77 1025.37,390.27 1023.61,391.78 1021.84,393.30 1020.06,394.84 1018.26,396.38 1016.46,397.94 1014.64,399.51 1012.80,401.09 1010.96,402.68 1009.10,404.28 1007.23,405.89 1005.35,407.51 1003.46,409.14 1001.56,410.78 999.64,412.43 997.71,414.09 995.77,415.76 993.82,417.44 991.86,419.13 989.89,420.83 987.90,422.54 985.91,424.26 983.91,425.98 981.89,427.72 979.86,429.46 977.83,431.22 975.78,432.98 973.72,434.75 971.66,436.53 969.58,438.32 967.49,440.12 965.40,441.92 963.29,443.73">
    <lane id="-0_0" index="0" disallow="pedestrian tram rail_urban rail rail_electric rail_fast ship" speed="22.22" length="179.63" width="3.75" shape="1108.74,331.31 1107.97,331.95 1107.19,332.61 1106.38,333.28 1105.56,333.98 1104.71,334.68 1103.85,335.41 1102.96,336.16 1102.06,336.92 1101.14,337.70 1100.20,338.49 1099.24,339.30 1098.26,340.13 1097.26,340.98 1096.24,341.84 1095.21,342.72 1094.15,343.61 1093.08,344.52 1091.99,345.45 1090.89,346.39 1089.76,347.35 1088.62,348.32 1087.46,349.31 1086.28,350.32 1085.09,351.34 1083.87,352.37 1082.65,353.42 1081.40,354.49 1080.14,355.57 1078.86,356.66 1077.56,357.77 1076.25,358.90 1074.92,360.04 1073.57,361.19 1072.21,362.36 1070.83,363.54 1069.44,364.73 1068.02,365.94 1066.60,367.17 1065.16,368.40 1063.70,369.66 1062.23,370.92 1060.74,372.20 1059.24,373.49 1057.72,374.79 1056.19,376.11 1054.64,377.44 1053.08,378.78 1051.50,380.14 1049.91,381.51 1048.30,382.89 1046.68,384.28 1045.05,385.69 1043.40,387.11 1041.74,388.54 1040.07,389.98 1038.38,391.44 1036.67,392.90 1034.96,394.38 1033.23,395.87 1031.48,397.37 1029.73,398.88 1027.96,400.41 1026.18,401.94 1024.38,403.49 1022.58,405.04 1020.76,406.61 1018.92,408.19 1017.08,409.78 1015.22,411.38 1013.35,412.99 1011.47,414.61 1009.58,416.24 1007.67,417.88 1005.76,419.53 1003.83,421.19 1001.89,422.86 999.94,424.54 997.98,426.23 996.01,427.93 994.02,429.64 992.03,431.36 990.02,433.09 988.01,434.82 985.98,436.57 983.95,438.32 981.90,440.08 979.84,441.86 977.77,443.64 975.70,445.42 973.61,447.22 972.44,448.22" type="driving"/>
    <lane id="-0_1" index="1" disallow="pedestrian tram rail_urban rail rail_electric rail_fast ship" speed="22.22" length="179.63" width="3.75" shape="1106.34,328.43 1105.57,329.07 1104.78,329.73 1103.97,330.41 1103.14,331.10 1102.30,331.81 1101.43,332.54 1100.55,333.29 1099.64,334.05 1098.72,334.83 1097.78,335.63 1096.81,336.44 1095.83,337.27 1094.83,338.12 1093.82,338.98 1092.78,339.86 1091.73,340.75 1090.65,341.66 1089.56,342.59 1088.46,343.53 1087.33,344.49 1086.19,345.47 1085.03,346.46 1083.85,347.46 1082.65,348.48 1081.44,349.52 1080.21,350.57 1078.96,351.64 1077.70,352.72 1076.42,353.81 1075.12,354.92 1073.81,356.05 1072.48,357.19 1071.13,358.34 1069.77,359.51 1068.39,360.69 1066.99,361.89 1065.58,363.10 1064.16,364.32 1062.72,365.56 1061.26,366.81 1059.79,368.08 1058.30,369.35 1056.79,370.64 1055.28,371.95 1053.74,373.27 1052.20,374.60 1050.63,375.94 1049.06,377.30 1047.46,378.67 1045.86,380.05 1044.24,381.44 1042.60,382.85 1040.96,384.27 1039.29,385.70 1037.62,387.14 1035.93,388.59 1034.23,390.06 1032.51,391.54 1030.78,393.03 1029.04,394.53 1027.28,396.04 1025.51,397.56 1023.73,399.10 1021.94,400.65 1020.13,402.20 1018.31,403.77 1016.48,405.35 1014.63,406.94 1012.77,408.54 1010.90,410.15 1009.02,411.77 1007.13,413.40 1005.23,415.04 1003.31,416.69 1001.38,418.35 999.44,420.02 997.49,421.70 995.53,423.39 993.56,425.09 991.58,426.80 989.58,428.52 987.58,430.24 985.56,431.98 983.53,433.73 981.50,435.48 979.45,437.24 977.39,439.01 975.33,440.79 973.25,442.58 971.16,444.38 970.00,445.38" type="driving"/>
    <lane id="-0_2" index="2" disallow="pedestrian tram rail_urban rail rail_electric rail_fast ship" speed="22.22" length="179.63" width="3.75" shape="1103.93,325.55 1103.16,326.20 1102.37,326.86 1101.56,327.54 1100.73,328.23 1099.89,328.94 1099.02,329.67 1098.13,330.42 1097.22,331.18 1096.30,331.97 1095.35,332.76 1094.39,333.58 1093.41,334.41 1092.41,335.26 1091.39,336.12 1090.35,337.00 1089.30,337.90 1088.23,338.81 1087.13,339.74 1086.03,340.68 1084.90,341.64 1083.75,342.61 1082.59,343.60 1081.41,344.61 1080.22,345.63 1079.00,346.67 1077.77,347.72 1076.52,348.79 1075.26,349.87 1073.98,350.96 1072.68,352.08 1071.37,353.20 1070.04,354.34 1068.69,355.49 1067.33,356.66 1065.95,357.85 1064.55,359.04 1063.14,360.25 1061.71,361.48 1060.27,362.71 1058.81,363.97 1057.34,365.23 1055.85,366.51 1054.35,367.80 1052.83,369.11 1051.30,370.42 1049.75,371.75 1048.19,373.10 1046.61,374.45 1045.02,375.82 1043.41,377.20 1041.79,378.60 1040.16,380.01 1038.51,381.42 1036.85,382.85 1035.17,384.30 1033.48,385.75 1031.78,387.22 1030.06,388.70 1028.33,390.19 1026.59,391.69 1024.83,393.20 1023.06,394.72 1021.28,396.26 1019.49,397.80 1017.68,399.36 1015.86,400.93 1014.03,402.51 1012.18,404.10 1010.33,405.70 1008.46,407.31 1006.58,408.93 1004.68,410.56 1002.78,412.20 1000.86,413.85 998.94,415.51 997.00,417.18 995.05,418.86 993.08,420.55 991.11,422.25 989.13,423.96 987.13,425.68 985.13,427.40 983.11,429.14 981.09,430.88 979.05,432.64 977.00,434.40 974.95,436.17 972.88,437.95 970.80,439.74 968.72,441.54 967.55,442.54" type="driving"/>
  </edge>
  <edge id="-1" from="0" to="2.1" priority="1" type="driving" shape="963.29,443.73 961.86,444.97 960.42,446.20 958.98,447.44 957.54,448.68 956.09,449.93 954.64,451.18 953.18,452.43 951.72,453.69 950.26,454.95 948.79,456.21 947.31,457.48 945.84,458.75 944.36,460.03 942.87,461.30 941.38,462.58 939.89,463.87 938.39,465.15 936.89,466.44 935.39,467.73 933.88,469.03 932.37,470.33 930.86,471.63 929.34,472.93 927.82,474.24 926.29,475.55 924.76,476.87 923.23,478.18 921.70,479.50 920.16,480.82 918.62,482.15 917.07,483.47 915.52,484.80 913.97,486.13 912.41,487.47 910.86,488.81 909.30,490.15 907.73,491.49 906.16,492.83 904.59,494.18 903.02,495.53 901.44,496.88 899.86,498.24 898.28,499.59 896.70,500.95 895.11,502.31 893.52,503.68 891.92,505.04 890.33,506.41 888.73,507.78 887.13,509.15 885.52,510.53 883.92,511.90 882.31,513.28 880.70,514.66 879.08,516.04 877.47,517.42 875.85,518.81 874.23,520.20 872.60,521.59 870.98,522.98 869.35,524.37 867.72,525.76 866.09,527.16 864.45,528.56 862.82,529.95 861.18,531.35 859.54,532.76 857.89,534.16 856.25,535.56 854.60,536.97 852.95,538.38 851.30,539.79 849.65,541.20 848.00,542.61 846.34,544.02 844.68,545.44 843.03,546.85 841.36,548.27 839.70,549.69 838.04,551.10 836.37,552.52 834.71,553.94 833.04,555.37 831.37,556.79 829.70,558.21 828.02,559.64 826.35,561.06 824.68,562.49 823.00,563.91 821.32,565.34 819.64,566.77 817.96,568.20 816.28,569.63 814.60,571.06 812.91,572.49 811.23,573.92 809.55,575.35 807.86,576.79 806.17,578.22 804.48,579.65 802.79,581.09 801.11,582.52 799.41,583.96 797.72,585.39 796.03,586.83 794.34,588.26 792.65,589.70 790.95,591.13 789.26,592.57 787.56,594.00 785.87,595.44 784.17,596.88 782.47,598.31 780.78,599.75 779.08,601.18 777.38,602.62 775.69,604.06 773.99,605.49 772.29,606.93 770.59,608.36 768.89,609.80 767.20,611.23 765.50,612.67 763.80,614.10 762.10,615.53 760.40,616.97 758.70,618.40 757.00,619.83 755.31,621.26 753.61,622.69 751.91,624.12 750.21,625.55 748.52,626.98 746.82,628.41 745.12,629.84 743.43,631.27 741.73,632.69 740.03,634.12 738.34,635.54 736.65,636.97 734.95,638.39 733.26,639.81 731.57,641.23 729.87,642.65 728.18,644.07 726.49,645.49 724.80,646.91 723.11,648.32 721.43,649.74 719.74,651.15 718.05,652.56 716.37,653.97 714.68,655.38 713.00,656.79 711.32,658.20 709.64,659.60 707.96,661.01 706.28,662.41 704.60,663.81 702.92,665.21 701.25,666.61 699.57,668.00 697.90,669.40 696.23,670.79 694.56,672.18 692.89,673.57 691.22,674.96 689.56,676.35 687.89,677.73 686.23,679.11 684.57,680.49 682.91,681.87 681.26,683.25 679.60,684.62 677.95,686.00 676.29,687.37 674.64,688.73 673.00,690.10 671.35,691.47 669.70,692.83 668.06,694.19 666.42,695.54 664.78,696.90 663.15,698.25 661.51,699.60 659.88,700.95 658.25,702.30 656.62,703.64 655.00,704.98 653.37,706.32 651.75,707.66 650.13,708.99 648.52,710.32 646.90,711.65 645.29,712.97 643.68,714.29 642.07,715.61 640.47,716.93 638.87,718.25 637.27,719.56 635.67,720.87 634.08,722.17 632.49,723.47 630.90,724.77 629.32,726.07 627.74,727.36 626.16,728.65 624.58,729.94 623.01,731.23 621.44,732.51 619.87,733.79 618.30,735.06 616.74,736.33 615.18,737.60 613.63,738.86 612.08,740.13 610.53,741.38 608.98,742.64 607.44,743.89 605.90,745.14 604.37,746.38 602.84,747.62 601.31,748.86 599.78,750.09 598.26,751.32 596.74,752.55 595.23,753.77 593.72,754.99 592.21,756.21 590.71,757.42 589.21,758.62 587.71,759.83 586.22,761.03 584.73,762.22 583.24,763.41 581.76,764.60 580.29,765.78 578.81,766.96 577.35,768.14 575.88,769.31 574.42,770.48 572.96,771.64 571.51,772.80 570.06,773.95 568.62,775.10 567.18,776.25 565.74,777.39 564.31,778.52 562.88,779.66 561.46,780.78 560.04,781.91 558.63,783.03 557.22,784.14 555.82,785.25 554.42,786.35 553.02,787.45 551.63,788.55 550.24,789.64 548.86,790.73 547.48,791.81 546.11,792.88 544.75,793.96 543.38,795.02 542.03,796.08 540.67,797.14 539.32,798.19 537.98,799.24 536.64,800.28 535.31,801.32 533.98,802.35 532.66,803.37 531.34,804.40 530.03,805.41 528.72,806.42 527.42,807.43 526.13,808.43 524.84,809.42 523.55,810.41 522.27,811.39 520.99,812.37 519.73,813.35 518.46,814.31 517.20,815.28 515.95,816.23 514.70,817.18 513.46,818.13 512.23,819.07 511.00,820.00 509.77,820.93 508.55,821.85 507.34,822.77 506.13,823.68 504.93,824.58 503.74,825.48 502.55,826.37 501.36,827.26 500.19,828.14 499.02,829.01 497.85,829.88 496.69,830.74 495.54,831.60 494.39,832.45 493.25,833.29 492.12,834.13 490.99,834.96 489.87,835.79 488.75,836.61 487.64,837.42 486.54,838.22 485.45,839.02 484.36,839.82">