<?xml version='1.0' encoding='UTF-8'?>
<!-- generated on 2022-11-13 00:01:10 by Eclipse SUMO netconvert Version 1.13.0
<configuration xmlns:xsi="http://www.w3.org/2001/XMLSchema-instance" xsi:noNamespaceSchemaLocation="http://sumo.dlr.de/xsd/netconvertConfiguration.xsd">

    <input>
        <opendrive-files value="map_v4\17\511737\511737.xodr"/>
    </input>

    <output>
        <output-file value="C:\Users\LinGe\AppData\Local\Temp\tmphtve4mzy\511737.net.xml"/>
    </output>

    <processing>
        <geometry.max-grade.fix value="false"/>
    </processing>

    <tls_building>
        <tls.left-green.time value="0"/>
    </tls_building>

    <junctions>
        <rectangular-lane-cut value="true"/>
    </junctions>

    <report>
        <aggregate-warnings value="5"/>
    </report>

</configuration>
-->
<net xmlns:xsi="http://www.w3.org/2001/XMLSchema-instance" version="1.9" junctionCornerDetail="5" rectangularLaneCut="true" limitTurnSpeed="5.50" xsi:noNamespaceSchemaLocation="http://sumo.dlr.de/xsd/net_file.xsd">
  <location netOffset="126.30,101.26" convBoundary="0.00,0.00,1227.48,1302.51" origBoundary="-126.30,-101.26,1101.18,1201.26" projParameter="!"/>
  <type id="bidirectional" priority="1" speed="1.39" disallow="pedestrian tram rail_urban rail rail_electric rail_fast ship" width="3.65"/>
  <type id="border" priority="0" speed="1.39" disallow="all" discard="1" width="0.10"/>
  <type id="driving" priority="1" speed="13.89" disallow="pedestrian tram rail_urban rail rail_electric rail_fast ship" width="3.65"/>
  <type id="entry" priority="1" speed="22.22" disallow="pedestrian tram rail_urban rail rail_electric rail_fast ship" width="3.65"/>
  <type id="exit" priority="1" speed="22.22" disallow="pedestrian tram rail_urban rail rail_electric rail_fast ship" width="3.65"/>
  <type id="median" priority="0" speed="1.39" disallow="all" discard="1" width="0.10"/>
  <type id="mwyEntry" priority="1" speed="22.22" allow="private emergency authority army vip passenger hov taxi bus coach delivery truck trailer motorcycle evehicle custom1 custom2" width="3.65"/>
  <type id="mwyExit" priority="1" speed="22.22" allow="private emergency authority army vip passenger hov taxi bus coach delivery truck trailer motorcycle evehicle custom1 custom2" width="3.65"/>
  <type id="none" priority="0" speed="1.39" disallow="all" discard="1" width="1.00"/>
  <type id="offRamp" priority="1" speed="22.22" allow="private emergency authority army vip passenger hov taxi bus coach delivery truck trailer motorcycle evehicle custom1 custom2" width="3.65"/>
  <type id="onRamp" priority="1" speed="22.22" allow="private emergency authority army vip passenger hov taxi bus coach delivery truck trailer motorcycle evehicle custom1 custom2" width="3.65"/>
  <type id="parking" priority="1" speed="1.39" disallow="pedestrian tram rail_urban rail rail_electric rail_fast ship" width="2.50"/>
  <type id="rail" priority="3" speed="33.33" allow="rail_urban rail rail_electric rail_fast" width="3.65"/>
  <type id="restricted" priority="0" speed="13.89" disallow="all" width="3.65"/>
  <type id="roadWorks" priority="0" speed="1.39" allow="authority" width="3.65"/>
  <type id="shoulder" priority="0" speed="1.39" disallow="all" discard="1" width="1.00"/>
  <type id="special1" priority="1" speed="22.22" allow="custom1" discard="1" width="3.65"/>
  <type id="special2" priority="1" speed="22.22" allow="custom2" discard="1" width="3.65"/>
  <type id="special3" priority="1" speed="22.22" allow="custom1 custom2" discard="1" width="3.65"/>
  <type id="stop" priority="1" speed="13.89" disallow="pedestrian tram rail_urban rail rail_electric rail_fast ship" width="3.65"/>
  <type id="tram" priority="2" speed="13.89" allow="tram" width="3.65"/>
  <edge id=":0_0" function="internal">
    <lane id=":0_0_0" index="0" disallow="pedestrian tram rail_urban rail rail_electric rail_fast ship" speed="15.28" length="38.92" width="3.75" shape="1122.67,305.70 1114.22,313.77,0.01 1106.45,322.24,0.03 1100.23,329.62,0.04 1096.45,334.39,0.05"/>
  </edge>
  <edge id=":0_1" function="internal">
    <lane id=":0_1_0" index="0" disallow="pedestrian tram rail_urban rail rail_electric rail_fast ship" speed="22.22" length="39.07" width="3.75" shape="1122.67,305.70 1093.16,331.30"/>
    <lane id=":0_1_1" index="1" disallow="pedestrian tram rail_urban rail rail_electric rail_fast ship" speed="22.22" length="39.07" width="3.75" shape="1120.22,302.86 1090.70,328.47"/>
    <lane id=":0_1_2" index="2" disallow="pedestrian tram rail_urban rail rail_electric rail_fast ship" speed="22.22" length="39.07" width="3.75" shape="1117.76,300.03 1088.24,325.63"/>
  </edge>
  <edge id=":1_0" function="internal">
    <lane id=":1_0_0" index="0" disallow="pedestrian tram rail_urban rail rail_electric rail_fast ship" speed="22.22" length="24.53" width="3.75" shape="225.67,932.25 232.61,927.85,0.02 237.72,923.57,0.03 241.35,919.60,0.04 243.82,916.13,0.05"/>
  </edge>
  <edge id=":1_1" function="internal">
    <lane id=":1_1_0" index="0" disallow="pedestrian tram rail_urban rail rail_electric rail_fast ship" speed="22.22" length="25.01" width="3.75" shape="225.67,932.25 247.53,920.13"/>
    <lane id=":1_1_1" index="1" disallow="pedestrian tram rail_urban rail rail_electric rail_fast ship" speed="22.22" length="25.01" width="3.75" shape="227.48,935.54 249.35,923.41"/>
    <lane id=":1_1_2" index="2" disallow="pedestrian tram rail_urban rail rail_electric rail_fast ship" speed="22.22" length="25.01" width="3.75" shape="229.30,938.82 251.17,926.69"/>
  </edge>
  <edge id=":10_0" function="internal">
    <lane id=":10_0_0" index="0" disallow="pedestrian tram rail_urban rail rail_electric rail_fast ship" speed="22.22" length="8.00" width="3.75" shape="898.99,999.92,20.00 904.51,1005.70,20.00"/>
    <lane id=":10_0_1" index="1" disallow="pedestrian tram rail_urban rail rail_electric rail_fast ship" speed="22.22" length="8.00" width="3.75" shape="896.28,1002.51,20.00 901.80,1008.29,20.00"/>
    <lane id=":10_0_2" index="2" disallow="pedestrian tram rail_urban rail rail_electric rail_fast ship" speed="22.22" length="8.00" width="3.75" shape="893.57,1005.10,20.00 899.09,1010.88,20.00"/>
  </edge>
  <edge id=":10_3" function="internal">
    <lane id=":10_3_0" index="0" disallow="pedestrian tram rail_urban rail rail_electric rail_fast ship" speed="22.22" length="7.99" width="3.75" shape="898.99,999.93,20.00 904.51,1005.70,20.00"/>
  </edge>
  <edge id=":11_0" function="internal">
    <lane id=":11_0_0" index="0" disallow="pedestrian tram rail_urban rail rail_electric rail_fast ship" speed="20.83" length="150.53" width="3.75" shape="462.99,791.67,0.00 483.27,779.76,0.00 524.46,755.11,0.00 567.13,729.29,0.00 591.85,713.86"/>
  </edge>
  <edge id=":11_1" function="internal">
    <lane id=":11_1_0" index="0" disallow="pedestrian tram rail_urban rail rail_electric rail_fast ship" speed="22.22" length="150.46" width="3.75" shape="465.39,794.98 591.85,713.86"/>
    <lane id=":11_1_1" index="1" disallow="pedestrian tram rail_urban rail rail_electric rail_fast ship" speed="22.22" length="150.46" width="3.75" shape="467.33,798.18 593.98,716.95"/>
    <lane id=":11_1_2" index="2" disallow="pedestrian tram rail_urban rail rail_electric rail_fast ship" speed="22.22" length="150.46" width="3.75" shape="469.28,801.39 596.10,720.04"/>
  </edge>
  <edge id=":11.10_0" function="internal">
    <lane id=":11.10_0_0" index="0" disallow="pedestrian tram rail_urban rail rail_electric rail_fast ship" speed="22.22" length="0.30" width="3.75" shape="684.26,762.52,20.00 684.44,762.75,20.00"/>
    <lane id=":11.10_0_1" index="1" disallow="pedestrian tram rail_urban rail rail_electric rail_fast ship" speed="22.22" length="0.30" width="3.75" shape="681.34,764.87,20.00 681.53,765.11,20.00"/>
    <lane id=":11.10_0_2" index="2" disallow="pedestrian tram rail_urban rail rail_electric rail_fast ship" speed="22.22" length="0.30" width="3.75" shape="678.42,767.23,20.00 678.61,767.46,20.00"/>
  </edge>
  <edge id=":16.15_0" function="internal">
    <lane id=":16.15_0_0" index="0" disallow="pedestrian tram rail_urban rail rail_electric rail_fast ship" speed="22.22" length="0.30" width="3.75" shape="666.75,777.05,20.00 666.56,776.81,20.00"/>
    <lane id=":16.15_0_1" index="1" disallow="pedestrian tram rail_urban rail rail_electric rail_fast ship" speed="22.22" length="0.30" width="3.75" shape="669.66,774.69,20.00 669.48,774.45,20.00"/>
    <lane id=":16.15_0_2" index="2" disallow="pedestrian tram rail_urban rail rail_electric rail_fast ship" speed="22.22" length="0.30" width="3.75" shape="672.58,772.33,20.00 672.39,772.10,20.00"/>
  </edge>
  <edge id=":2_0" function="internal">
    <lane id=":2_0_0" index="0" disallow="pedestrian tram rail_urban rail rail_electric rail_fast ship" speed="15.28" length="42.33" width="3.75" shape="338.50,285.08,20.00 345.97,294.75,19.96 354.28,304.31,19.92 361.64,312.24,19.88 366.27,316.98,19.86"/>
  </edge>
  <edge id=":2_1" function="internal">
    <lane id=":2_1_0" index="0" disallow="pedestrian tram rail_urban rail rail_electric rail_fast ship" speed="22.22" length="42.45" width="3.75" shape="338.50,285.08,20.00 362.88,319.83,20.00"/>
    <lane id=":2_1_1" index="1" disallow="pedestrian tram rail_urban rail rail_electric rail_fast ship" speed="22.22" length="42.45" width="3.75" shape="335.43,287.23,20.00 359.81,321.98,20.00"/>
    <lane id=":2_1_2" index="2" disallow="pedestrian tram rail_urban rail rail_electric rail_fast ship" speed="22.22" length="42.45" width="3.75" shape="332.36,289.38,20.00 356.74,324.14,20.00"/>
  </edge>
  <edge id=":2.1_0" function="internal">
    <lane id=":2.1_0_0" index="0" disallow="pedestrian tram rail_urban rail rail_electric rail_fast ship" speed="22.22" length="0.30" width="3.75" shape="637.78,709.25 637.53,709.43"/>
    <lane id=":2.1_0_1" index="1" disallow="pedestrian tram rail_urban rail rail_electric rail_fast ship" speed="22.22" length="0.30" width="3.75" shape="635.57,706.22 635.33,706.39"/>
    <lane id=":2.1_0_2" index="2" disallow="pedestrian tram rail_urban rail rail_electric rail_fast ship" speed="22.22" length="0.30" width="3.75" shape="633.37,703.18 633.13,703.36"/>
  </edge>
  <edge id=":20.19_0" function="internal">
    <lane id=":20.19_0_0" index="0" disallow="pedestrian tram rail_urban rail rail_electric rail_fast ship" speed="16.67" length="0.30" width="3.75" shape="524.86,916.71,6.52 524.58,916.63,6.51"/>
  </edge>
  <edge id=":22.21_0" function="internal">
    <lane id=":22.21_0_0" index="0" disallow="pedestrian tram rail_urban rail rail_electric rail_fast ship" speed="8.33" length="0.28" width="3.75" shape="630.80,499.08,11.52 631.08,499.09,11.51"/>
  </edge>
  <edge id=":25.24_0" function="internal">
    <lane id=":25.24_0_0" index="0" disallow="pedestrian tram rail_urban rail rail_electric rail_fast ship" speed="8.33" length="0.28" width="3.75" shape="914.54,688.30,8.63 914.53,688.57,8.65"/>
  </edge>
  <edge id=":27.26_0" function="internal">
    <lane id=":27.26_0_0" index="0" disallow="pedestrian tram rail_urban rail rail_electric rail_fast ship" speed="22.22" length="0.30" width="3.75" shape="835.42,702.41,11.04 835.13,702.33,11.05"/>
  </edge>
  <edge id=":29.28_0" function="internal">
    <lane id=":29.28_0_0" index="0" disallow="pedestrian tram rail_urban rail rail_electric rail_fast ship" speed="22.22" length="0.29" width="3.75" shape="329.60,695.78,5.98 329.88,695.81,5.98"/>
  </edge>
  <edge id=":3_0" function="internal">
    <lane id=":3_0_0" index="0" disallow="pedestrian tram rail_urban rail rail_electric rail_fast ship" speed="19.44" length="78.14" width="3.75" shape="1061.18,1199.53,20.00 1048.29,1187.20,20.00 1029.90,1170.30,20.00 1012.75,1154.80,20.00 1003.60,1146.71,20.00"/>
  </edge>
  <edge id=":3_1" function="internal">
    <lane id=":3_1_0" index="0" disallow="pedestrian tram rail_urban rail rail_electric rail_fast ship" speed="22.22" length="78.26" width="3.75" shape="1061.18,1199.53,20.00 1006.40,1143.62,20.00"/>
    <lane id=":3_1_1" index="1" disallow="pedestrian tram rail_urban rail rail_electric rail_fast ship" speed="22.22" length="78.26" width="3.75" shape="1063.86,1196.90,20.00 1009.09,1141.00,20.00"/>
    <lane id=":3_1_2" index="2" disallow="pedestrian tram rail_urban rail rail_electric rail_fast ship" speed="22.22" length="78.26" width="3.75" shape="1066.53,1194.27,20.00 1011.77,1138.38,20.00"/>
  </edge>
  <edge id=":31.30_0" function="internal">
    <lane id=":31.30_0_0" index="0" disallow="pedestrian tram rail_urban rail rail_electric rail_fast ship" speed="19.44" length="0.30" width="3.75" shape="28.06,723.45,8.82 28.19,723.72,8.82"/>
  </edge>
  <edge id=":4_0" function="internal">
    <lane id=":4_0_0" index="0" disallow="pedestrian tram rail_urban rail rail_electric rail_fast ship" speed="20.83" length="8.00" width="3.75" shape="511.73,569.04,20.00 507.06,562.56,20.00"/>
  </edge>
  <edge id=":4_1" function="internal">
    <lane id=":4_1_0" index="0" disallow="pedestrian tram rail_urban rail rail_electric rail_fast ship" speed="22.22" length="3.91" width="3.75" shape="511.73,569.04,20.00 509.45,565.87,20.00"/>
    <lane id=":4_1_1" index="1" disallow="pedestrian tram rail_urban rail rail_electric rail_fast ship" speed="22.22" length="3.91" width="3.75" shape="514.78,566.85,20.00 512.50,563.68,20.00"/>
    <lane id=":4_1_2" index="2" disallow="pedestrian tram rail_urban rail rail_electric rail_fast ship" speed="22.22" length="3.91" width="3.75" shape="517.82,564.66,20.00 515.54,561.49,20.00"/>
  </edge>
  <edge id=":5_0" function="internal">
    <lane id=":5_0_0" index="0" disallow="pedestrian tram rail_urban rail rail_electric rail_fast ship" speed="19.44" length="49.95" width="3.75" shape="281.22,932.57 273.94,935.38 261.54,940.54 247.57,946.75 235.56,952.75"/>
  </edge>
  <edge id=":5_1" function="internal">
    <lane id=":5_1_0" index="0" disallow="pedestrian tram rail_urban rail rail_electric rail_fast ship" speed="22.22" length="49.46" width="3.75" shape="278.81,928.74 235.56,952.75"/>
    <lane id=":5_1_1" index="1" disallow="pedestrian tram rail_urban rail rail_electric rail_fast ship" speed="22.22" length="49.46" width="3.75" shape="276.99,925.47 233.74,949.47"/>
    <lane id=":5_1_2" index="2" disallow="pedestrian tram rail_urban rail rail_electric rail_fast ship" speed="22.22" length="49.46" width="3.75" shape="275.17,922.19 231.93,946.19"/>
  </edge>
  <edge id=":6_0" function="internal">
    <lane id=":6_0_0" index="0" disallow="pedestrian tram rail_urban rail rail_electric rail_fast ship" speed="15.28" length="77.12" width="3.75" shape="1020.96,358.13,0.00 1030.64,350.94,0.00 1048.75,337.15,0.00 1068.21,322.05,0.00 1081.94,310.93"/>
  </edge>
  <edge id=":6_1" function="internal">
    <lane id=":6_1_0" index="0" disallow="pedestrian tram rail_urban rail rail_electric rail_fast ship" speed="22.22" length="76.83" width="3.75" shape="1023.86,361.20 1081.94,310.93"/>
    <lane id=":6_1_1" index="1" disallow="pedestrian tram rail_urban rail rail_electric rail_fast ship" speed="22.22" length="76.83" width="3.75" shape="1026.31,364.04 1084.40,313.76"/>
    <lane id=":6_1_2" index="2" disallow="pedestrian tram rail_urban rail rail_electric rail_fast ship" speed="22.22" length="76.83" width="3.75" shape="1028.76,366.88 1086.86,316.60"/>
  </edge>
  <edge id=":7_0" function="internal">
    <lane id=":7_0_0" index="0" disallow="pedestrian tram rail_urban rail rail_electric rail_fast ship" speed="15.28" length="129.38" width="3.75" shape="1009.00,1107.92,20.00 1096.59,1203.14,20.00"/>
  </edge>
  <edge id=":7_1" function="internal">
    <lane id=":7_1_0" index="0" disallow="pedestrian tram rail_urban rail rail_electric rail_fast ship" speed="22.22" length="129.19" width="3.75" shape="1006.19,1110.86,20.00 1096.59,1203.14,20.00"/>
    <lane id=":7_1_1" index="1" disallow="pedestrian tram rail_urban rail rail_electric rail_fast ship" speed="22.22" length="129.19" width="3.75" shape="1003.50,1113.48,20.00 1093.91,1205.77,20.00"/>
    <lane id=":7_1_2" index="2" disallow="pedestrian tram rail_urban rail rail_electric rail_fast ship" speed="22.22" length="129.19" width="3.75" shape="1000.82,1116.10,20.00 1091.24,1208.40,20.00"/>
  </edge>
  <edge id=":7.6_0" function="internal">
    <lane id=":7.6_0_0" index="0" disallow="pedestrian tram rail_urban rail rail_electric rail_fast ship" speed="22.22" length="0.30" width="3.75" shape="624.16,691.02 624.40,690.85"/>
    <lane id=":7.6_0_1" index="1" disallow="pedestrian tram rail_urban rail rail_electric rail_fast ship" speed="22.22" length="0.30" width="3.75" shape="626.36,694.06 626.60,693.88"/>
    <lane id=":7.6_0_2" index="2" disallow="pedestrian tram rail_urban rail rail_electric rail_fast ship" speed="22.22" length="0.30" width="3.75" shape="628.57,697.09 628.81,696.91"/>
  </edge>
  <edge id=":8_0" function="internal">
    <lane id=":8_0_0" index="0" disallow="pedestrian tram rail_urban rail rail_electric rail_fast ship" speed="15.28" length="3.05" width="3.75" shape="918.08,670.40,7.87 917.28,673.34,7.93"/>
  </edge>
  <edge id=":8_1" function="internal">
    <lane id=":8_1_0" index="0" disallow="pedestrian tram rail_urban rail rail_electric rail_fast ship" speed="8.33" length="3.03" width="3.75" shape="918.08,670.40,7.87 917.27,673.32,7.99"/>
  </edge>
  <edge id=":9_0" function="internal">
    <lane id=":9_0_0" index="0" disallow="pedestrian tram rail_urban rail rail_electric rail_fast ship" speed="22.22" length="3.90" width="3.75" shape="509.34,565.71,20.00 507.06,562.53,20.00"/>
    <lane id=":9_0_1" index="1" disallow="pedestrian tram rail_urban rail rail_electric rail_fast ship" speed="22.22" length="3.90" width="3.75" shape="512.38,563.52,20.00 510.10,560.35,20.00"/>
    <lane id=":9_0_2" index="2" disallow="pedestrian tram rail_urban rail rail_electric rail_fast ship" speed="22.22" length="3.90" width="3.75" shape="515.43,561.33,20.00 513.15,558.16,20.00"/>
  </edge>
  <edge id=":9_3" function="internal">
    <lane id=":9_3_0" index="0" disallow="pedestrian tram rail_urban rail rail_electric rail_fast ship" speed="22.22" length="7.99" width="3.75" shape="511.74,569.00,20.00 507.06,562.53,20.00"/>
  </edge>
  <edge id="-0" from="0.begin" to="0" priority="1" type="driving" shape="1227.48,202.87 1226.65,203.57 1225.80,204.28 1224.94,205.01 1224.05,205.76 1223.13,206.53 1222.20,207.32 1221.25,208.13 1220.28,208.95 1219.29,209.79 1218.27,210.65 1217.24,211.53 1216.19,212.43 1215.12,213.34 1214.03,214.27 1212.92,215.22 1211.79,216.19 1210.64,217.17 1209.47,218.17 1208.28,219.19 1207.07,220.23 1205.85,221.28 1204.61,222.34 1203.35,223.43 1202.07,224.53 1200.77,225.65 1199.45,226.78 1198.12,227.93 1196.77,229.09 1195.40,230.27 1194.01,231.47 1192.61,232.68 1191.18,233.91 1189.75,235.15 1188.29,236.40 1186.82,237.68 1185.33,238.96 1183.82,240.26 1182.30,241.58 1180.76,242.91 1179.21,244.26 1177.64,245.62 1176.05,246.99 1174.45,248.38 1172.83,249.78 1171.19,251.20 1169.54,252.62 1167.88,254.07 1166.20,255.52 1164.50,256.99 1162.79,258.47 1161.07,259.97 1159.33,261.48 1157.57,263.00 1155.81,264.53 1154.02,266.08 1152.22,267.64 1150.41,269.21 1148.59,270.79 1146.75,272.39 1144.90,274.00 1143.03,275.62 1141.15,277.25 1139.26,278.89 1137.35,280.54 1135.43,282.21 1133.50,283.89 1131.56,285.57 1129.60,287.27 1127.63,288.98 1125.65,290.70 1123.65,292.44 1121.65,294.18 1119.63,295.93 1117.60,297.69 1115.55,299.46 1113.50,301.25">
    <lane id="-0_0" index="0" disallow="pedestrian tram rail_urban rail rail_electric rail_fast ship" speed="22.22" length="146.46" width="3.75" shape="1233.51,210.06 1232.68,210.75 1231.84,211.46 1230.98,212.18 1230.09,212.93 1229.19,213.69 1228.26,214.48 1227.31,215.28 1226.34,216.10 1225.36,216.94 1224.35,217.80 1223.32,218.67 1222.27,219.56 1221.20,220.47 1220.11,221.40 1219.01,222.35 1217.88,223.31 1216.73,224.29 1215.57,225.29 1214.38,226.31 1213.18,227.34 1211.96,228.39 1210.72,229.46 1209.46,230.54 1208.18,231.64 1206.88,232.75 1205.57,233.88 1204.24,235.03 1202.89,236.19 1201.52,237.37 1200.13,238.57 1198.73,239.78 1197.31,241.00 1195.87,242.24 1194.42,243.50 1192.95,244.77 1191.46,246.06 1189.95,247.36 1188.43,248.67 1186.89,250.00 1185.34,251.35 1183.77,252.71 1182.18,254.08 1180.58,255.47 1178.96,256.87 1177.33,258.28 1175.68,259.71 1174.02,261.15 1172.34,262.61 1170.64,264.08 1168.93,265.56 1167.21,267.05 1165.47,268.56 1163.72,270.08 1161.95,271.62 1160.17,273.16 1158.37,274.72 1156.56,276.29 1154.73,277.88 1152.89,279.47 1151.04,281.08 1149.18,282.70 1147.30,284.33 1145.40,285.97 1143.50,287.63 1141.58,289.29 1139.65,290.97 1137.70,292.66 1135.74,294.35 1133.77,296.06 1131.79,297.78 1129.80,299.52 1127.79,301.26 1125.77,303.01 1123.74,304.77 1122.67,305.70" type="driving"/>
    <lane id="-0_1" index="1" disallow="pedestrian tram rail_urban rail rail_electric rail_fast ship" speed="22.22" length="146.46" width="3.75" shape="1231.10,207.18 1230.27,207.88 1229.43,208.59 1228.56,209.31 1227.67,210.06 1226.77,210.83 1225.84,211.61 1224.89,212.42 1223.92,213.24 1222.93,214.08 1221.92,214.94 1220.89,215.82 1219.84,216.71 1218.77,217.62 1217.68,218.55 1216.57,219.50 1215.44,220.46 1214.29,221.45 1213.13,222.45 1211.94,223.46 1210.74,224.49 1209.51,225.54 1208.27,226.61 1207.01,227.69 1205.73,228.79 1204.44,229.91 1203.12,231.04 1201.79,232.19 1200.44,233.35 1199.07,234.53 1197.68,235.73 1196.28,236.94 1194.86,238.16 1193.42,239.40 1191.97,240.66 1190.49,241.93 1189.01,243.22 1187.50,244.52 1185.98,245.84 1184.44,247.17 1182.89,248.51 1181.32,249.87 1179.73,251.24 1178.13,252.63 1176.51,254.03 1174.88,255.45 1173.23,256.88 1171.56,258.32 1169.88,259.77 1168.19,261.24 1166.48,262.72 1164.75,264.22 1163.01,265.73 1161.26,267.25 1159.49,268.78 1157.71,270.33 1155.91,271.89 1154.10,273.46 1152.27,275.04 1150.44,276.64 1148.58,278.25 1146.72,279.87 1144.84,281.50 1142.95,283.14 1141.04,284.79 1139.12,286.46 1137.19,288.14 1135.24,289.82 1133.29,291.52 1131.32,293.23 1129.33,294.95 1127.34,296.68 1125.33,298.42 1123.31,300.18 1121.28,301.94 1120.22,302.86" type="driving"/>
    <lane id="-0_2" index="2" disallow="pedestrian tram rail_urban rail rail_electric rail_fast ship" speed="22.22" length="146.46" width="3.75" shape="1228.69,204.31 1227.86,205.00 1227.01,205.72 1226.14,206.45 1225.25,207.20 1224.34,207.96 1223.41,208.75 1222.46,209.56 1221.49,210.38 1220.50,211.22 1219.49,212.08 1218.46,212.96 1217.41,213.86 1216.34,214.77 1215.24,215.70 1214.13,216.65 1213.00,217.61 1211.86,218.60 1210.69,219.60 1209.50,220.61 1208.30,221.65 1207.07,222.70 1205.83,223.77 1204.57,224.85 1203.29,225.95 1201.99,227.07 1200.67,228.20 1199.34,229.35 1197.99,230.51 1196.62,231.69 1195.23,232.89 1193.83,234.10 1192.41,235.32 1190.97,236.57 1189.52,237.82 1188.04,239.09 1186.55,240.38 1185.05,241.68 1183.53,243.00 1181.99,244.33 1180.43,245.68 1178.86,247.03 1177.28,248.41 1175.67,249.80 1174.05,251.20 1172.42,252.61 1170.77,254.04 1169.11,255.48 1167.43,256.94 1165.73,258.41 1164.02,259.89 1162.30,261.39 1160.56,262.90 1158.80,264.42 1157.03,265.95 1155.25,267.50 1153.45,269.06 1151.64,270.63 1149.82,272.21 1147.98,273.81 1146.13,275.41 1144.26,277.03 1142.38,278.66 1140.49,280.31 1138.58,281.96 1136.66,283.63 1134.73,285.30 1132.79,286.99 1130.83,288.69 1128.86,290.40 1126.88,292.12 1124.88,293.85 1122.87,295.59 1120.86,297.34 1118.82,299.11 1117.76,300.03" type="driving"/>
  </edge>
  <edge id="-1" from="0" to="2.1" priority="1" type="driving" shape="1113.50,301.25 1112.15,302.42 1110.79,303.59 1109.43,304.77 1108.07,305.96 1106.70,307.15 1105.32,308.34 1103.94,309.54 1102.56,310.74 1101.17,311.94 1099.77,313.15 1098.38,314.37 1096.97,315.58 1095.57,316.80 1094.15,318.03 1092.74,319.26 1091.32,320.49 1089.89,321.72 1088.46,322.96 1087.03,324.20 1085.59,325.45 1084.15,326.70 1082.70,327.95 1081.25,329.21 1079.80,330.47 1078.34,331.73 1076.88,333.00 1075.41,334.27 1073.94,335.55 1072.47,336.82 1070.99,338.10 1069.51,339.39 1068.02,340.67 1066.53,341.96 1065.04,343.26 1063.54,344.55 1062.04,345.85 1060.54,347.15 1059.03,348.46 1057.52,349.77 1056.00,351.08 1054.48,352.39 1052.96,353.71 1051.43,355.03 1049.91,356.35 1048.37,357.68 1046.84,359.00 1045.30,360.33 1043.76,361.67 1042.21,363.00 1040.66,364.34 1039.11,365.68 1037.56,367.03 1036.00,368.37 1034.44,369.72 1032.87,371.07 1031.31,372.42 1029.74,373.78 1028.17,375.14 1026.59,376.50 1025.01,377.86 1023.43,379.22 1021.85,380.59 1020.26,381.96 1018.67,383.33 1017.08,384.70 1015.48,386.07 1013.89,387.45 1012.29,388.83 1010.69,390.21 1009.08,391.59 1007.48,392.98 1005.87,394.36 1004.25,395.75 1002.64,397.14 1001.02,398.53 999.41,399.93 997.79,401.32 996.16,402.72 994.54,404.11 992.91,405.51 991.28,406.92 989.65,408.32 988.02,409.72 986.38,411.13 984.75,412.53 983.11,413.94 981.47,415.35 979.82,416.76 978.18,418.17 976.53,419.59 974.89,421.00 973.24,422.42 971.59,423.83 969.93,425.25 968.28,426.67 966.62,428.09 964.97,429.51 963.31,430.93 961.65,432.35 959.99,433.78 958.32,435.20 956.66,436.63 955.00,438.05 953.33,439.48 951.66,440.90 949.99,442.33 948.32,443.76 946.65,445.19 944.98,446.62 943.31,448.05 941.63,449.48 939.96,450.91 938.28,452.34 936.60,453.77 934.93,455.21 933.25,456.64 931.57,458.07 929.89,459.50 928.21,460.94 926.53,462.37 924.84,463.80 923.16,465.24 921.48,466.67 919.79,468.10 918.11,469.54 916.43,470.97 914.74,472.41 913.06,473.84 911.37,475.27 909.68,476.71 908.00,478.14 906.31,479.57 904.62,481.00 902.94,482.44 901.25,483.87 899.56,485.30 897.88,486.73 896.19,488.16 894.50,489.59 892.81,491.02 891.13,492.45 889.44,493.88 887.75,495.31 886.07,496.74 884.38,498.16 882.70,499.59 881.01,501.02 879.32,502.44 877.64,503.86 875.95,505.29 874.27,506.71 872.59,508.13 870.90,509.55 869.22,510.97 867.54,512.39 865.86,513.81 864.18,515.22 862.50,516.64 860.82,518.05 859.14,519.46 857.46,520.87 855.79,522.28 854.11,523.69 852.43,525.10 850.76,526.51 849.09,527.91 847.42,529.32 845.74,530.72 844.07,532.12 842.41,533.52 840.74,534.92 839.07,536.31 837.41,537.71 835.74,539.10 834.08,540.49 832.42,541.88 830.76,543.27 829.10,544.65 827.44,546.03 825.79,547.42 824.14,548.80 822.48,550.17 820.83,551.55 819.18,552.93 817.54,554.30 815.89,555.67 814.25,557.04 812.60,558.40 810.96,559.76 809.32,561.13 807.69,562.49 806.05,563.84 804.42,565.20 802.79,566.55 801.16,567.90 799.53,569.25 797.91,570.59 796.29,571.93 794.67,573.27 793.05,574.61 791.43,575.95 789.82,577.28 788.21,578.61 786.60,579.94 784.99,581.26 783.39,582.58 781.79,583.90 780.19,585.22 778.59,586.53 777.00,587.84 775.41,589.15 773.82,590.45 772.23,591.75 770.65,593.05 769.07,594.34 767.49,595.64 765.91,596.93 764.34,598.21 762.77,599.49 761.21,600.77 759.64,602.05 758.08,603.32 756.52,604.59 754.97,605.86 753.42,607.12 751.87,608.38 750.32,609.64 748.78,610.89 747.24,612.14 745.71,613.38 744.18,614.62 742.65,615.86 741.12,617.10 739.60,618.33 738.08,619.55 736.57,620.78 735.06,622.00 733.55,623.21 732.05,624.42 730.55,625.63 729.05,626.84 727.56,628.04 726.07,629.23 724.58,630.42 723.10,631.61 721.62,632.79 720.15,633.97 718.68,635.15 717.21,636.32 715.75,637.49 714.29,638.65 712.84,639.81 711.39,640.96 709.94,642.11 708.50,643.26 707.06,644.40 705.63,645.53 704.20,646.66 702.78,647.79 701.36,648.91 699.94,650.03 698.53,651.14 697.12,652.25 695.72,653.36 694.32,654.45 692.93,655.55 691.54,656.64 690.16,657.72 688.78,658.80 687.41,659.88 686.04,660.95 684.67,662.01 683.31,663.07 681.96,664.12 680.61,665.17 679.26,666.22 677.92,667.26 676.58,668.29 675.25,669.32 673.93,670.34 672.61,671.36 671.29,672.37 669.98,673.38 668.68,674.38 667.38,675.38 666.08,676.37 664.80,677.36 663.51,678.34 662.23,679.31 660.96,680.28 659.69,681.24 658.43,682.20 657.18,683.15 655.93,684.10 654.68,685.04 653.44,685.97 652.21,686.90 650.98,687.82 649.76,688.74 648.54,689.65 647.33,690.55 646.13,691.45 644.93,692.35 643.74,693.23 642.55,694.11 641.37,694.99 640.19,695.86 639.03,696.72 637.86,697.57 636.71,698.42 635.56,699.26 634.41,700.10 633.28,700.93 632.14,701.76">