<?xml version='1.0' encoding='UTF-8'?>
<!-- generated on 2022-09-25 13:21:11 by Eclipse SUMO netconvert Version 1.13.0
<configuration xmlns:xsi="http://www.w3.org/2001/XMLSchema-instance" xsi:noNamespaceSchemaLocation="http://sumo.dlr.de/xsd/netconvertConfiguration.xsd">

    <input>
        <opendrive-files value="map_new_new\6\62\62.xodr"/>
    </input>

    <output>
        <output-file value="C:\Users\LinGe\AppData\Local\Temp\tmp74hguxn3\62.net.xml"/>
    </output>

    <processing>
        <geometry.max-grade.fix value="false"/>
    </processing>

    <tls_building>
        <tls.left-green.time value="0"/>
    </tls_building>

    <junctions>
        <rectangular-lane-cut value="true"/>
    </junctions>

    <report>
        <aggregate-warnings value="5"/>
    </report>

</configuration>
-->
<net xmlns:xsi="http://www.w3.org/2001/XMLSchema-instance" version="1.9" junctionCornerDetail="5" rectangularLaneCut="true" limitTurnSpeed="5.50" xsi:noNamespaceSchemaLocation="http://sumo.dlr.de/xsd/net_file.xsd">
  <location netOffset="1.56,101.26" convBoundary="0.00,0.00,1102.73,1302.51" origBoundary="-1.56,-101.26,1101.18,1201.26" projParameter="!"/>
  <type id="bidirectional" priority="1" speed="1.39" disallow="pedestrian tram rail_urban rail rail_electric rail_fast ship" width="3.65"/>
  <type id="border" priority="0" speed="1.39" disallow="all" discard="1" width="0.10"/>
  <type id="driving" priority="1" speed="13.89" disallow="pedestrian tram rail_urban rail rail_electric rail_fast ship" width="3.65"/>
  <type id="entry" priority="1" speed="22.22" disallow="pedestrian tram rail_urban rail rail_electric rail_fast ship" width="3.65"/>
  <type id="exit" priority="1" speed="22.22" disallow="pedestrian tram rail_urban rail rail_electric rail_fast ship" width="3.65"/>
  <type id="median" priority="0" speed="1.39" disallow="all" discard="1" width="0.10"/>
  <type id="mwyEntry" priority="1" speed="22.22" allow="private emergency authority army vip passenger hov taxi bus coach delivery truck trailer motorcycle evehicle custom1 custom2" width="3.65"/>
  <type id="mwyExit" priority="1" speed="22.22" allow="private emergency authority army vip passenger hov taxi bus coach delivery truck trailer motorcycle evehicle custom1 custom2" width="3.65"/>
  <type id="none" priority="0" speed="1.39" disallow="all" discard="1" width="1.00"/>
  <type id="offRamp" priority="1" speed="22.22" allow="private emergency authority army vip passenger hov taxi bus coach delivery truck trailer motorcycle evehicle custom1 custom2" width="3.65"/>
  <type id="onRamp" priority="1" speed="22.22" allow="private emergency authority army vip passenger hov taxi bus coach delivery truck trailer motorcycle evehicle custom1 custom2" width="3.65"/>
  <type id="parking" priority="1" speed="1.39" disallow="pedestrian tram rail_urban rail rail_electric rail_fast ship" width="2.50"/>
  <type id="rail" priority="3" speed="33.33" allow="rail_urban rail rail_electric rail_fast" width="3.65"/>
  <type id="restricted" priority="0" speed="13.89" disallow="all" width="3.65"/>
  <type id="roadWorks" priority="0" speed="1.39" allow="authority" width="3.65"/>
  <type id="shoulder" priority="0" speed="1.39" disallow="all" discard="1" width="1.00"/>
  <type id="special1" priority="1" speed="22.22" allow="custom1" discard="1" width="3.65"/>
  <type id="special2" priority="1" speed="22.22" allow="custom2" discard="1" width="3.65"/>
  <type id="special3" priority="1" speed="22.22" allow="custom1 custom2" discard="1" width="3.65"/>
  <type id="stop" priority="1" speed="13.89" disallow="pedestrian tram rail_urban rail rail_electric rail_fast ship" width="3.65"/>
  <type id="tram" priority="2" speed="13.89" allow="tram" width="3.65"/>
  <edge id=":0_0" function="internal">
    <lane id=":0_0_0" index="0" disallow="pedestrian tram rail_urban rail rail_electric rail_fast ship" speed="18.06" length="36.12" width="3.75" shape="996.45,277.93 987.09,284.17,0.02 978.79,290.65,0.03 972.25,296.37,0.05 968.19,300.30,0.05"/>
  </edge>
  <edge id=":0_1" function="internal">
    <lane id=":0_1_0" index="0" disallow="pedestrian tram rail_urban rail rail_electric rail_fast ship" speed="22.22" length="36.36" width="3.75" shape="996.45,277.93 965.25,296.60"/>
    <lane id=":0_1_1" index="1" disallow="pedestrian tram rail_urban rail rail_electric rail_fast ship" speed="22.22" length="36.36" width="3.75" shape="994.52,274.71 963.32,293.38"/>
    <lane id=":0_1_2" index="2" disallow="pedestrian tram rail_urban rail rail_electric rail_fast ship" speed="22.22" length="36.36" width="3.75" shape="992.60,271.49 961.40,290.17"/>
  </edge>
  <edge id=":1_0" function="internal">
    <lane id=":1_0_0" index="0" disallow="pedestrian tram rail_urban rail rail_electric rail_fast ship" speed="18.06" length="53.21" width="3.75" shape="418.52,647.06 407.96,656.14 396.01,667.40 385.68,677.65 379.99,683.71"/>
  </edge>
  <edge id=":1_1" function="internal">
    <lane id=":1_1_0" index="0" disallow="pedestrian tram rail_urban rail rail_electric rail_fast ship" speed="22.22" length="53.33" width="3.75" shape="418.52,647.06 377.00,680.40"/>
    <lane id=":1_1_1" index="1" disallow="pedestrian tram rail_urban rail rail_electric rail_fast ship" speed="22.22" length="53.33" width="3.75" shape="416.21,644.11 374.62,677.50"/>
    <lane id=":1_1_2" index="2" disallow="pedestrian tram rail_urban rail rail_electric rail_fast ship" speed="22.22" length="53.33" width="3.75" shape="413.89,641.16 372.24,674.60"/>
  </edge>
  <edge id=":10_0" function="internal">
    <lane id=":10_0_0" index="0" disallow="pedestrian tram rail_urban rail rail_electric rail_fast ship" speed="22.22" length="22.06" width="3.75" shape="384.21,344.86,12.82 406.15,347.17,12.78"/>
  </edge>
  <edge id=":10_1" function="internal">
    <lane id=":10_1_0" index="0" disallow="pedestrian tram rail_urban rail rail_electric rail_fast ship" speed="19.44" length="23.38" width="3.75" shape="384.21,344.86,12.82 389.19,345.85,12.81 395.60,347.68,12.79 401.82,349.97,12.77 406.24,352.34,12.76"/>
  </edge>
  <edge id=":11_0" function="internal">
    <lane id=":11_0_0" index="0" disallow="pedestrian tram rail_urban rail rail_electric rail_fast ship" speed="18.06" length="54.97" width="3.75" shape="874.30,1099.67,20.00 879.56,1106.46,20.00 889.11,1118.22,20.00 900.09,1131.22,20.00 909.67,1141.72,20.00"/>
  </edge>
  <edge id=":11_1" function="internal">
    <lane id=":11_1_0" index="0" disallow="pedestrian tram rail_urban rail rail_electric rail_fast ship" speed="22.22" length="54.54" width="3.75" shape="871.32,1102.94,20.00 909.67,1141.72,20.00"/>
    <lane id=":11_1_1" index="1" disallow="pedestrian tram rail_urban rail rail_electric rail_fast ship" speed="22.22" length="54.54" width="3.75" shape="868.65,1105.58,20.00 907.00,1144.36,20.00"/>
    <lane id=":11_1_2" index="2" disallow="pedestrian tram rail_urban rail rail_electric rail_fast ship" speed="22.22" length="54.54" width="3.75" shape="865.98,1108.21,20.00 904.34,1147.00,20.00"/>
  </edge>
  <edge id=":12_0" function="internal">
    <lane id=":12_0_0" index="0" disallow="pedestrian tram rail_urban rail rail_electric rail_fast ship" speed="19.44" length="19.86" width="3.75" shape="368.13,830.99,6.05 348.30,829.90,5.99"/>
  </edge>
  <edge id=":12_1" function="internal">
    <lane id=":12_1_0" index="0" disallow="pedestrian tram rail_urban rail rail_electric rail_fast ship" speed="18.06" length="19.42" width="3.75" shape="367.33,826.68,6.08 363.16,828.13,6.06 358.00,829.19,6.04 352.75,829.79,6.01 348.30,829.90,5.99"/>
  </edge>
  <edge id=":13_0" function="internal">
    <lane id=":13_0_0" index="0" disallow="pedestrian tram rail_urban rail rail_electric rail_fast ship" speed="22.22" length="18.07" width="3.75" shape="609.54,373.29,6.90 627.52,375.14,6.86"/>
  </edge>
  <edge id=":13_1" function="internal">
    <lane id=":13_1_0" index="0" disallow="pedestrian tram rail_urban rail rail_electric rail_fast ship" speed="15.28" length="17.66" width="3.75" shape="610.13,377.59,6.91 614.13,376.43,6.90 618.72,375.57,6.88 623.36,375.10,6.87 627.52,375.14,6.86"/>
  </edge>
  <edge id=":13.12_0" function="internal">
    <lane id=":13.12_0_0" index="0" disallow="pedestrian tram rail_urban rail rail_electric rail_fast ship" speed="22.22" length="0.30" width="3.75" shape="561.68,770.14,20.00 561.86,770.37,20.00"/>
    <lane id=":13.12_0_1" index="1" disallow="pedestrian tram rail_urban rail rail_electric rail_fast ship" speed="22.22" length="0.30" width="3.75" shape="558.76,772.49,20.00 558.95,772.73,20.00"/>
    <lane id=":13.12_0_2" index="2" disallow="pedestrian tram rail_urban rail rail_electric rail_fast ship" speed="22.22" length="0.30" width="3.75" shape="555.84,774.85,20.00 556.03,775.08,20.00"/>
  </edge>
  <edge id=":14_0" function="internal">
    <lane id=":14_0_0" index="0" disallow="pedestrian tram rail_urban rail rail_electric rail_fast ship" speed="14.78" length="22.50" width="3.75" shape="578.04,836.95,19.91 578.10,831.84,19.93 576.87,826.72,19.95 574.37,821.58,19.97 570.59,816.41,20.00"/>
  </edge>
  <edge id=":14_1" function="internal">
    <lane id=":14_1_0" index="0" disallow="pedestrian tram rail_urban rail rail_electric rail_fast ship" speed="22.22" length="20.46" width="3.75" shape="583.97,831.93,20.00 570.59,816.41,20.00"/>
    <lane id=":14_1_1" index="1" disallow="pedestrian tram rail_urban rail rail_electric rail_fast ship" speed="22.22" length="20.46" width="3.75" shape="586.80,829.47,20.00 573.44,813.98,20.00"/>
    <lane id=":14_1_2" index="2" disallow="pedestrian tram rail_urban rail rail_electric rail_fast ship" speed="22.22" length="20.46" width="3.75" shape="589.63,827.01,20.00 576.29,811.54,20.00"/>
  </edge>
  <edge id=":15_0" function="internal">
    <lane id=":15_0_0" index="0" disallow="pedestrian tram rail_urban rail rail_electric rail_fast ship" speed="16.67" length="30.43" width="3.75" shape="391.26,529.43,20.00 392.23,534.11,20.00 394.41,540.48,20.00 398.10,548.21,20.00 403.63,556.97,20.00"/>
  </edge>
  <edge id=":15_1" function="internal">
    <lane id=":15_1_0" index="0" disallow="pedestrian tram rail_urban rail rail_electric rail_fast ship" speed="22.22" length="29.23" width="3.75" shape="386.66,533.18,20.00 403.63,556.97,20.00"/>
    <lane id=":15_1_1" index="1" disallow="pedestrian tram rail_urban rail rail_electric rail_fast ship" speed="22.22" length="29.23" width="3.75" shape="383.60,535.35,20.00 400.58,559.15,20.00"/>
    <lane id=":15_1_2" index="2" disallow="pedestrian tram rail_urban rail rail_electric rail_fast ship" speed="22.22" length="29.23" width="3.75" shape="380.55,537.53,20.00 397.53,561.33,20.00"/>
  </edge>
  <edge id=":18.17_0" function="internal">
    <lane id=":18.17_0_0" index="0" disallow="pedestrian tram rail_urban rail rail_electric rail_fast ship" speed="22.22" length="0.30" width="3.75" shape="544.17,784.67,20.00 543.98,784.43,20.00"/>
    <lane id=":18.17_0_1" index="1" disallow="pedestrian tram rail_urban rail rail_electric rail_fast ship" speed="22.22" length="0.30" width="3.75" shape="547.08,782.31,20.00 546.90,782.07,20.00"/>
    <lane id=":18.17_0_2" index="2" disallow="pedestrian tram rail_urban rail rail_electric rail_fast ship" speed="22.22" length="0.30" width="3.75" shape="550.00,779.95,20.00 549.81,779.72,20.00"/>
  </edge>
  <edge id=":2_0" function="internal">
    <lane id=":2_0_0" index="0" disallow="pedestrian tram rail_urban rail rail_electric rail_fast ship" speed="18.06" length="69.84" width="3.75" shape="83.77,910.66 95.51,899.02 110.85,883.06 124.72,868.29 132.05,860.20"/>
  </edge>
  <edge id=":2_1" function="internal">
    <lane id=":2_1_0" index="0" disallow="pedestrian tram rail_urban rail rail_electric rail_fast ship" speed="22.22" length="70.02" width="3.75" shape="83.77,910.66 135.20,863.12"/>
    <lane id=":2_1_1" index="1" disallow="pedestrian tram rail_urban rail rail_electric rail_fast ship" speed="22.22" length="70.02" width="3.75" shape="86.32,913.41 137.74,865.87"/>
    <lane id=":2_1_2" index="2" disallow="pedestrian tram rail_urban rail rail_electric rail_fast ship" speed="22.22" length="70.02" width="3.75" shape="88.87,916.16 140.28,868.63"/>
  </edge>
  <edge id=":2.1_0" function="internal">
    <lane id=":2.1_0_0" index="0" disallow="pedestrian tram rail_urban rail rail_electric rail_fast ship" speed="22.22" length="0.30" width="3.75" shape="466.21,610.95 465.97,611.12"/>
    <lane id=":2.1_0_1" index="1" disallow="pedestrian tram rail_urban rail rail_electric rail_fast ship" speed="22.22" length="0.30" width="3.75" shape="464.01,607.91 463.76,608.09"/>
    <lane id=":2.1_0_2" index="2" disallow="pedestrian tram rail_urban rail rail_electric rail_fast ship" speed="22.22" length="0.30" width="3.75" shape="461.80,604.88 461.56,605.06"/>
  </edge>
  <edge id=":22.21_0" function="internal">
    <lane id=":22.21_0_0" index="0" disallow="pedestrian tram rail_urban rail rail_electric rail_fast ship" speed="19.44" length="0.30" width="3.75" shape="425.11,839.02,8.50 424.82,838.95,8.50"/>
  </edge>
  <edge id=":25.24_0" function="internal">
    <lane id=":25.24_0_0" index="0" disallow="pedestrian tram rail_urban rail rail_electric rail_fast ship" speed="13.89" length="0.30" width="3.75" shape="203.10,543.84,9.61 203.09,543.54,9.62"/>
  </edge>
  <edge id=":28.27_0" function="internal">
    <lane id=":28.27_0_0" index="0" disallow="pedestrian tram rail_urban rail rail_electric rail_fast ship" speed="22.22" length="0.30" width="3.75" shape="520.40,359.65,9.65 520.70,359.69,9.64"/>
  </edge>
  <edge id=":3_0" function="internal">
    <lane id=":3_0_0" index="0" disallow="pedestrian tram rail_urban rail rail_electric rail_fast ship" speed="16.67" length="25.00" width="3.75" shape="512.87,550.78 519.57,545.71 524.46,540.94 527.82,536.62 529.92,532.88"/>
  </edge>
  <edge id=":3_1" function="internal">
    <lane id=":3_1_0" index="0" disallow="pedestrian tram rail_urban rail rail_electric rail_fast ship" speed="22.22" length="25.64" width="3.75" shape="512.87,550.78 534.22,536.53"/>
    <lane id=":3_1_1" index="1" disallow="pedestrian tram rail_urban rail rail_electric rail_fast ship" speed="22.22" length="25.64" width="3.75" shape="514.96,553.89 536.29,539.65"/>
    <lane id=":3_1_2" index="2" disallow="pedestrian tram rail_urban rail rail_electric rail_fast ship" speed="22.22" length="25.64" width="3.75" shape="517.05,557.00 538.36,542.78"/>
  </edge>
  <edge id=":31.30_0" function="internal">
    <lane id=":31.30_0_0" index="0" disallow="pedestrian tram rail_urban rail rail_electric rail_fast ship" speed="13.89" length="0.30" width="3.75" shape="783.75,852.12,13.20 783.72,852.41,13.21"/>
  </edge>
  <edge id=":33.32_0" function="internal">
    <lane id=":33.32_0_0" index="0" disallow="pedestrian tram rail_urban rail rail_electric rail_fast ship" speed="16.67" length="0.30" width="3.75" shape="408.44,694.88,8.08 408.42,695.18,8.07"/>
  </edge>
  <edge id=":35.34_0" function="internal">
    <lane id=":35.34_0_0" index="0" disallow="pedestrian tram rail_urban rail rail_electric rail_fast ship" speed="8.33" length="0.27" width="3.75" shape="422.51,610.11,9.60 422.56,609.85,9.60"/>
  </edge>
  <edge id=":37.36_0" function="internal">
    <lane id=":37.36_0_0" index="0" disallow="pedestrian tram rail_urban rail rail_electric rail_fast ship" speed="13.89" length="0.29" width="3.75" shape="381.18,847.72,9.46 381.38,847.92,9.48"/>
  </edge>
  <edge id=":39.38_0" function="internal">
    <lane id=":39.38_0_0" index="0" disallow="pedestrian tram rail_urban rail rail_electric rail_fast ship" speed="11.11" length="0.26" width="3.75" shape="459.35,465.50,10.12 459.09,465.50,10.16"/>
  </edge>
  <edge id=":4_0" function="internal">
    <lane id=":4_0_0" index="0" disallow="pedestrian tram rail_urban rail rail_electric rail_fast ship" speed="22.22" length="98.99" width="3.75" shape="116.24,146.53,20.00 128.72,163.53,20.00 148.09,189.19,20.00 166.46,213.26,20.00 175.96,225.47,20.00"/>
  </edge>
  <edge id=":4_1" function="internal">
    <lane id=":4_1_0" index="0" disallow="pedestrian tram rail_urban rail rail_electric rail_fast ship" speed="22.22" length="99.10" width="3.75" shape="116.24,146.53,20.00 172.68,227.97,20.00"/>
    <lane id=":4_1_1" index="1" disallow="pedestrian tram rail_urban rail rail_electric rail_fast ship" speed="22.22" length="99.10" width="3.75" shape="113.16,148.66,20.00 169.60,230.11,20.00"/>
    <lane id=":4_1_2" index="2" disallow="pedestrian tram rail_urban rail rail_electric rail_fast ship" speed="22.22" length="99.10" width="3.75" shape="110.08,150.79,20.00 166.52,232.25,20.00"/>
  </edge>
  <edge id=":5_0" function="internal">
    <lane id=":5_0_0" index="0" disallow="pedestrian tram rail_urban rail rail_electric rail_fast ship" speed="20.83" length="51.48" width="3.75" shape="738.70,999.42,20.00 728.85,989.96,20.00 717.02,979.46,20.00 706.39,970.42,20.00 700.15,965.34,20.00"/>
  </edge>
  <edge id=":5_1" function="internal">
    <lane id=":5_1_0" index="0" disallow="pedestrian tram rail_urban rail rail_electric rail_fast ship" speed="22.22" length="51.66" width="3.75" shape="738.70,999.42,20.00 703.02,962.03,20.00"/>
    <lane id=":5_1_1" index="1" disallow="pedestrian tram rail_urban rail rail_electric rail_fast ship" speed="22.22" length="51.66" width="3.75" shape="741.40,996.83,20.00 705.75,959.45,20.00"/>
    <lane id=":5_1_2" index="2" disallow="pedestrian tram rail_urban rail rail_electric rail_fast ship" speed="22.22" length="51.66" width="3.75" shape="744.11,994.23,20.00 708.47,956.87,20.00"/>
  </edge>
  <edge id=":6_0" function="internal">
    <lane id=":6_0_0" index="0" disallow="pedestrian tram rail_urban rail rail_electric rail_fast ship" speed="20.83" length="29.34" width="3.75" shape="193.68,847.65,0.00 189.36,849.45,0.00 183.57,852.34,0.00 176.64,856.72,0.00 168.88,863.02"/>
  </edge>
  <edge id=":6_1" function="internal">
    <lane id=":6_1_0" index="0" disallow="pedestrian tram rail_urban rail rail_electric rail_fast ship" speed="22.22" length="28.35" width="3.75" shape="189.80,843.90 168.88,863.02"/>
    <lane id=":6_1_1" index="1" disallow="pedestrian tram rail_urban rail rail_electric rail_fast ship" speed="22.22" length="28.35" width="3.75" shape="187.27,841.13 166.35,860.26"/>
    <lane id=":6_1_2" index="2" disallow="pedestrian tram rail_urban rail rail_electric rail_fast ship" speed="22.22" length="28.35" width="3.75" shape="184.75,838.35 163.81,857.49"/>
  </edge>
  <edge id=":7_0" function="internal">
    <lane id=":7_0_0" index="0" disallow="pedestrian tram rail_urban rail rail_electric rail_fast ship" speed="19.44" length="19.55" width="3.75" shape="535.92,875.35,12.14 517.74,868.14,12.08"/>
  </edge>
  <edge id=":7_1" function="internal">
    <lane id=":7_1_0" index="0" disallow="pedestrian tram rail_urban rail rail_electric rail_fast ship" speed="13.89" length="20.64" width="3.75" shape="535.92,875.35,12.14 531.83,873.21,12.12 527.08,870.07,12.10 522.54,866.64,12.08 519.05,863.58,12.07"/>
  </edge>
  <edge id=":7.6_0" function="internal">
    <lane id=":7.6_0_0" index="0" disallow="pedestrian tram rail_urban rail rail_electric rail_fast ship" speed="22.22" length="0.30" width="3.75" shape="452.59,592.73 452.83,592.55"/>
    <lane id=":7.6_0_1" index="1" disallow="pedestrian tram rail_urban rail rail_electric rail_fast ship" speed="22.22" length="0.30" width="3.75" shape="454.79,595.76 455.04,595.58"/>
    <lane id=":7.6_0_2" index="2" disallow="pedestrian tram rail_urban rail rail_electric rail_fast ship" speed="22.22" length="0.30" width="3.75" shape="457.00,598.79 457.24,598.62"/>
  </edge>
  <edge id=":8_0" function="internal">
    <lane id=":8_0_0" index="0" disallow="pedestrian tram rail_urban rail rail_electric rail_fast ship" speed="18.06" length="42.29" width="3.75" shape="97.41,167.27,19.88 94.60,161.27,19.90 89.77,151.62,19.93 83.71,140.50,19.96 77.25,130.14,20.00"/>
  </edge>
  <edge id=":8_1" function="internal">
    <lane id=":8_1_0" index="0" disallow="pedestrian tram rail_urban rail rail_electric rail_fast ship" speed="22.22" length="41.76" width="3.75" shape="101.01,164.47,20.00 77.25,130.14,20.00"/>
    <lane id=":8_1_1" index="1" disallow="pedestrian tram rail_urban rail rail_electric rail_fast ship" speed="22.22" length="41.76" width="3.75" shape="104.09,162.34,20.00 80.33,128.00,20.00"/>
    <lane id=":8_1_2" index="2" disallow="pedestrian tram rail_urban rail rail_electric rail_fast ship" speed="22.22" length="41.76" width="3.75" shape="107.18,160.20,20.00 83.41,125.87,20.00"/>
  </edge>
  <edge id=":9_0" function="internal">
    <lane id=":9_0_0" index="0" disallow="pedestrian tram rail_urban rail rail_electric rail_fast ship" speed="22.22" length="98.36" width="3.75" shape="863.25,326.51,0.00 876.84,319.33,0.00 903.30,305.07,0.00 931.33,289.76,0.00 949.62,279.46"/>
  </edge>
  <edge id=":9_1" function="internal">
    <lane id=":9_1_0" index="0" disallow="pedestrian tram rail_urban rail rail_electric rail_fast ship" speed="22.22" length="98.11" width="3.75" shape="865.51,329.98 949.62,279.46"/>
    <lane id=":9_1_1" index="1" disallow="pedestrian tram rail_urban rail rail_electric rail_fast ship" speed="22.22" length="98.11" width="3.75" shape="867.45,333.20 951.55,282.68"/>
    <lane id=":9_1_2" index="2" disallow="pedestrian tram rail_urban rail rail_electric rail_fast ship" speed="22.22" length="98.11" width="3.75" shape="869.39,336.41 953.48,285.90"/>
  </edge>
  <edge id="-0" from="0.begin" to="0" priority="1" type="driving" shape="1102.73,202.87 1101.76,203.48 1100.77,204.10 1099.74,204.73 1098.70,205.38 1097.62,206.04 1096.52,206.72 1095.40,207.42 1094.25,208.12 1093.07,208.84 1091.88,209.58 1090.65,210.33 1089.40,211.09 1088.13,211.87 1086.83,212.66 1085.51,213.47 1084.17,214.28 1082.80,215.12 1081.41,215.96 1079.99,216.82 1078.56,217.69 1077.10,218.58 1075.61,219.48 1074.11,220.39 1072.58,221.31 1071.03,222.25 1069.46,223.20 1067.86,224.16 1066.25,225.14 1064.61,226.12 1062.95,227.12 1061.27,228.13 1059.57,229.16 1057.85,230.20 1056.11,231.24 1054.35,232.30 1052.56,233.38 1050.76,234.46 1048.94,235.55 1047.09,236.66 1045.23,237.78 1043.35,238.91 1041.45,240.05 1039.53,241.20 1037.59,242.36 1035.63,243.54 1033.66,244.72 1031.66,245.92 1029.65,247.12 1027.62,248.34 1025.57,249.57 1023.51,250.80 1021.42,252.05 1019.32,253.31 1017.20,254.58 1015.07,255.86 1012.92,257.14 1010.75,258.44 1008.56,259.75 1006.36,261.07 1004.15,262.39 1001.91,263.73 999.66,265.08 997.40,266.43 995.12,267.80 992.82,269.17 990.51,270.55 988.19,271.94">
    <lane id="-0_0" index="0" disallow="pedestrian tram rail_urban rail rail_electric rail_fast ship" speed="22.22" length="129.85" width="3.75" shape="1107.69,210.83 1106.72,211.44 1105.71,212.06 1104.68,212.70 1103.63,213.35 1102.55,214.02 1101.44,214.70 1100.31,215.40 1099.16,216.11 1097.98,216.83 1096.77,217.57 1095.54,218.32 1094.29,219.09 1093.02,219.87 1091.71,220.66 1090.39,221.47 1089.04,222.29 1087.67,223.13 1086.28,223.97 1084.86,224.83 1083.42,225.71 1081.96,226.60 1080.47,227.50 1078.96,228.41 1077.43,229.33 1075.88,230.27 1074.30,231.22 1072.71,232.19 1071.09,233.16 1069.45,234.15 1067.79,235.15 1066.11,236.17 1064.41,237.19 1062.68,238.23 1060.94,239.28 1059.18,240.34 1057.39,241.41 1055.59,242.49 1053.76,243.59 1051.92,244.70 1050.06,245.82 1048.17,246.95 1046.27,248.09 1044.35,249.24 1042.41,250.40 1040.45,251.58 1038.48,252.76 1036.48,253.96 1034.47,255.16 1032.44,256.38 1030.39,257.61 1028.32,258.85 1026.24,260.10 1024.14,261.35 1022.02,262.62 1019.88,263.90 1017.73,265.19 1015.56,266.49 1013.38,267.79 1011.18,269.11 1008.96,270.44 1006.73,271.78 1004.48,273.12 1002.21,274.48 999.93,275.84 997.64,277.21 996.45,277.93" type="driving"/>
    <lane id="-0_1" index="1" disallow="pedestrian tram rail_urban rail rail_electric rail_fast ship" speed="22.22" length="129.85" width="3.75" shape="1105.71,207.65 1104.73,208.25 1103.73,208.88 1102.71,209.51 1101.65,210.16 1100.58,210.83 1099.47,211.51 1098.35,212.21 1097.19,212.91 1096.02,213.64 1094.81,214.37 1093.59,215.13 1092.34,215.89 1091.06,216.67 1089.76,217.46 1088.44,218.27 1087.09,219.09 1085.72,219.92 1084.33,220.77 1082.91,221.63 1081.47,222.50 1080.01,223.39 1078.53,224.29 1077.02,225.20 1075.49,226.13 1073.94,227.06 1072.36,228.01 1070.77,228.98 1069.15,229.95 1067.51,230.94 1065.85,231.94 1064.17,232.95 1062.47,233.98 1060.75,235.01 1059.01,236.06 1057.24,237.12 1055.46,238.20 1053.66,239.28 1051.83,240.38 1049.99,241.48 1048.13,242.60 1046.24,243.73 1044.34,244.87 1042.42,246.02 1040.48,247.19 1038.53,248.36 1036.55,249.55 1034.56,250.74 1032.54,251.95 1030.51,253.16 1028.46,254.39 1026.40,255.63 1024.31,256.88 1022.21,258.14 1020.09,259.40 1017.96,260.68 1015.81,261.97 1013.64,263.27 1011.45,264.58 1009.25,265.89 1007.03,267.22 1004.80,268.56 1002.55,269.90 1000.29,271.26 998.01,272.62 995.71,274.00 994.52,274.71" type="driving"/>
    <lane id="-0_2" index="2" disallow="pedestrian tram rail_urban rail rail_electric rail_fast ship" speed="22.22" length="129.85" width="3.75" shape="1103.72,204.47 1102.75,205.07 1101.76,205.69 1100.73,206.33 1099.68,206.98 1098.61,207.64 1097.51,208.32 1096.38,209.01 1095.23,209.72 1094.06,210.44 1092.85,211.18 1091.63,211.93 1090.38,212.69 1089.11,213.47 1087.81,214.26 1086.49,215.07 1085.14,215.89 1083.77,216.72 1082.38,217.56 1080.97,218.42 1079.53,219.30 1078.07,220.18 1076.58,221.08 1075.08,221.99 1073.55,222.92 1072.00,223.85 1070.43,224.80 1068.83,225.77 1067.22,226.74 1065.58,227.73 1063.92,228.73 1062.24,229.74 1060.54,230.77 1058.82,231.80 1057.07,232.85 1055.31,233.91 1053.53,234.98 1051.73,236.07 1049.90,237.16 1048.06,238.27 1046.20,239.39 1044.32,240.52 1042.41,241.66 1040.49,242.81 1038.56,243.97 1036.60,245.14 1034.62,246.33 1032.63,247.53 1030.61,248.73 1028.58,249.95 1026.54,251.18 1024.47,252.41 1022.39,253.66 1020.28,254.92 1018.17,256.19 1016.03,257.47 1013.88,258.75 1011.71,260.05 1009.53,261.36 1007.33,262.68 1005.11,264.00 1002.87,265.34 1000.63,266.69 998.36,268.04 996.08,269.41 993.79,270.78 992.60,271.49" type="driving"/>
  </edge>