<?xml version='1.0' encoding='UTF-8'?>
<!-- generated on 2022-11-12 22:14:50 by Eclipse SUMO netconvert Version 1.13.0
<configuration xmlns:xsi="http://www.w3.org/2001/XMLSchema-instance" xsi:noNamespaceSchemaLocation="http://sumo.dlr.de/xsd/netconvertConfiguration.xsd">

    <input>
        <opendrive-files value="map_v4\2\55531252\55531252.xodr"/>
    </input>

    <output>
        <output-file value="C:\Users\LinGe\AppData\Local\Temp\tmp_r115a6s\55531252.net.xml"/>
    </output>

    <processing>
        <geometry.max-grade.fix value="false"/>
    </processing>

    <tls_building>
        <tls.left-green.time value="0"/>
    </tls_building>

    <junctions>
        <rectangular-lane-cut value="true"/>
    </junctions>

    <report>
        <aggregate-warnings value="5"/>
    </report>

</configuration>
-->
<net xmlns:xsi="http://www.w3.org/2001/XMLSchema-instance" version="1.9" junctionCornerDetail="5" rectangularLaneCut="true" limitTurnSpeed="5.50" xsi:noNamespaceSchemaLocation="http://sumo.dlr.de/xsd/net_file.xsd">
  <location netOffset="1.56,101.26" convBoundary="0.00,0.00,1102.73,1302.51" origBoundary="-1.56,-101.26,1101.18,1201.26" projParameter="!"/>
  <type id="bidirectional" priority="1" speed="1.39" disallow="pedestrian tram rail_urban rail rail_electric rail_fast ship" width="3.65"/>
  <type id="border" priority="0" speed="1.39" disallow="all" discard="1" width="0.10"/>
  <type id="driving" priority="1" speed="13.89" disallow="pedestrian tram rail_urban rail rail_electric rail_fast ship" width="3.65"/>
  <type id="entry" priority="1" speed="22.22" disallow="pedestrian tram rail_urban rail rail_electric rail_fast ship" width="3.65"/>
  <type id="exit" priority="1" speed="22.22" disallow="pedestrian tram rail_urban rail rail_electric rail_fast ship" width="3.65"/>
  <type id="median" priority="0" speed="1.39" disallow="all" discard="1" width="0.10"/>
  <type id="mwyEntry" priority="1" speed="22.22" allow="private emergency authority army vip passenger hov taxi bus coach delivery truck trailer motorcycle evehicle custom1 custom2" width="3.65"/>
  <type id="mwyExit" priority="1" speed="22.22" allow="private emergency authority army vip passenger hov taxi bus coach delivery truck trailer motorcycle evehicle custom1 custom2" width="3.65"/>
  <type id="none" priority="0" speed="1.39" disallow="all" discard="1" width="1.00"/>
  <type id="offRamp" priority="1" speed="22.22" allow="private emergency authority army vip passenger hov taxi bus coach delivery truck trailer motorcycle evehicle custom1 custom2" width="3.65"/>
  <type id="onRamp" priority="1" speed="22.22" allow="private emergency authority army vip passenger hov taxi bus coach delivery truck trailer motorcycle evehicle custom1 custom2" width="3.65"/>
  <type id="parking" priority="1" speed="1.39" disallow="pedestrian tram rail_urban rail rail_electric rail_fast ship" width="2.50"/>
  <type id="rail" priority="3" speed="33.33" allow="rail_urban rail rail_electric rail_fast" width="3.65"/>
  <type id="restricted" priority="0" speed="13.89" disallow="all" width="3.65"/>
  <type id="roadWorks" priority="0" speed="1.39" allow="authority" width="3.65"/>
  <type id="shoulder" priority="0" speed="1.39" disallow="all" discard="1" width="1.00"/>
  <type id="special1" priority="1" speed="22.22" allow="custom1" discard="1" width="3.65"/>
  <type id="special2" priority="1" speed="22.22" allow="custom2" discard="1" width="3.65"/>
  <type id="special3" priority="1" speed="22.22" allow="custom1 custom2" discard="1" width="3.65"/>
  <type id="stop" priority="1" speed="13.89" disallow="pedestrian tram rail_urban rail rail_electric rail_fast ship" width="3.65"/>
  <type id="tram" priority="2" speed="13.89" allow="tram" width="3.65"/>
  <edge id=":0_0" function="internal">
    <lane id=":0_0_0" index="0" disallow="pedestrian tram rail_urban rail rail_electric rail_fast ship" speed="16.67" length="29.48" width="3.75" shape="1034.54,255.41 1026.22,261.07,0.03 1019.91,266.39,0.05 1015.35,271.00,0.07 1012.25,274.51,0.08"/>
  </edge>
  <edge id=":0_1" function="internal">
    <lane id=":0_1_0" index="0" disallow="pedestrian tram rail_urban rail rail_electric rail_fast ship" speed="22.22" length="29.70" width="3.75" shape="1034.54,255.41 1009.11,270.76"/>
    <lane id=":0_1_1" index="1" disallow="pedestrian tram rail_urban rail rail_electric rail_fast ship" speed="22.22" length="29.70" width="3.75" shape="1032.60,252.20 1007.17,267.55"/>
    <lane id=":0_1_2" index="2" disallow="pedestrian tram rail_urban rail rail_electric rail_fast ship" speed="22.22" length="29.70" width="3.75" shape="1030.66,248.99 1005.23,264.34"/>
  </edge>
  <edge id=":1_0" function="internal">
    <lane id=":1_0_0" index="0" disallow="pedestrian tram rail_urban rail rail_electric rail_fast ship" speed="18.06" length="79.06" width="3.75" shape="81.67,910.67 94.31,897.89 111.76,879.57 127.76,862.45 136.06,853.30"/>
  </edge>
  <edge id=":1_1" function="internal">
    <lane id=":1_1_0" index="0" disallow="pedestrian tram rail_urban rail rail_electric rail_fast ship" speed="22.22" length="79.25" width="3.75" shape="81.67,910.67 139.22,856.16"/>
    <lane id=":1_1_1" index="1" disallow="pedestrian tram rail_urban rail rail_electric rail_fast ship" speed="22.22" length="79.25" width="3.75" shape="84.25,913.39 141.79,858.89"/>
    <lane id=":1_1_2" index="2" disallow="pedestrian tram rail_urban rail rail_electric rail_fast ship" speed="22.22" length="79.25" width="3.75" shape="86.84,916.11 144.36,861.62"/>
  </edge>
  <edge id=":10_0" function="internal">
    <lane id=":10_0_0" index="0" disallow="pedestrian tram rail_urban rail rail_electric rail_fast ship" speed="16.67" length="60.42" width="3.75" shape="965.47,1144.70,19.84 969.88,1153.04,19.87 978.09,1167.96,19.91 987.44,1184.37,19.96 995.31,1197.21,20.00"/>
  </edge>
  <edge id=":10_1" function="internal">
    <lane id=":10_1_0" index="0" disallow="pedestrian tram rail_urban rail rail_electric rail_fast ship" speed="22.22" length="60.04" width="3.75" shape="961.99,1147.26,20.00 995.31,1197.21,20.00"/>
    <lane id=":10_1_1" index="1" disallow="pedestrian tram rail_urban rail rail_electric rail_fast ship" speed="22.22" length="60.04" width="3.75" shape="958.87,1149.34,20.00 992.19,1199.29,20.00"/>
    <lane id=":10_1_2" index="2" disallow="pedestrian tram rail_urban rail rail_electric rail_fast ship" speed="22.22" length="60.04" width="3.75" shape="955.75,1151.43,20.00 989.07,1201.37,20.00"/>
  </edge>
  <edge id=":11_0" function="internal">
    <lane id=":11_0_0" index="0" disallow="pedestrian tram rail_urban rail rail_electric rail_fast ship" speed="11.11" length="3.00" width="3.75" shape="884.24,530.13,6.22 883.23,532.95,6.29"/>
  </edge>
  <edge id=":11_1" function="internal">
    <lane id=":11_1_0" index="0" disallow="pedestrian tram rail_urban rail rail_electric rail_fast ship" speed="10.42" length="3.00" width="3.75" shape="884.24,530.13,6.22 883.23,532.95,6.25"/>
  </edge>
  <edge id=":11.10_0" function="internal">
    <lane id=":11.10_0_0" index="0" disallow="pedestrian tram rail_urban rail rail_electric rail_fast ship" speed="22.22" length="0.30" width="3.75" shape="608.02,641.60,20.00 608.22,641.83,20.00"/>
    <lane id=":11.10_0_1" index="1" disallow="pedestrian tram rail_urban rail rail_electric rail_fast ship" speed="22.22" length="0.30" width="3.75" shape="605.11,643.95,20.00 605.30,644.19,20.00"/>
    <lane id=":11.10_0_2" index="2" disallow="pedestrian tram rail_urban rail rail_electric rail_fast ship" speed="22.22" length="0.30" width="3.75" shape="602.19,646.31,20.00 602.38,646.54,20.00"/>
  </edge>
  <edge id=":12_0" function="internal">
    <lane id=":12_0_0" index="0" disallow="pedestrian tram rail_urban rail rail_electric rail_fast ship" speed="11.11" length="16.03" width="3.75" shape="846.29,763.95,12.03 849.23,779.70,12.07"/>
  </edge>
  <edge id=":12_1" function="internal">
    <lane id=":12_1_0" index="0" disallow="pedestrian tram rail_urban rail rail_electric rail_fast ship" speed="9.72" length="15.65" width="3.75" shape="842.33,765.81,12.02 844.61,768.93,12.03 846.61,772.37,12.05 848.19,776.01,12.06 849.23,779.70,12.07"/>
  </edge>
  <edge id=":13_0" function="internal">
    <lane id=":13_0_0" index="0" disallow="pedestrian tram rail_urban rail rail_electric rail_fast ship" speed="13.89" length="76.06" width="3.75" shape="179.46,519.19,12.32 170.83,443.62,12.37"/>
  </edge>
  <edge id=":13_1" function="internal">
    <lane id=":13_1_0" index="0" disallow="pedestrian tram rail_urban rail rail_electric rail_fast ship" speed="11.81" length="75.92" width="3.75" shape="183.31,518.50,12.26 170.83,443.62,12.37"/>
  </edge>
  <edge id=":14_0" function="internal">
    <lane id=":14_0_0" index="0" disallow="pedestrian tram rail_urban rail rail_electric rail_fast ship" speed="13.89" length="50.94" width="3.75" shape="390.15,832.38,4.24 339.24,830.86,4.20"/>
  </edge>
  <edge id=":14_1" function="internal">
    <lane id=":14_1_0" index="0" disallow="pedestrian tram rail_urban rail rail_electric rail_fast ship" speed="15.28" length="50.68" width="3.75" shape="389.85,828.40,4.31 380.55,828.99,4.29 364.56,829.81,4.25 348.56,830.54,4.22 339.24,830.86,4.20"/>
  </edge>
  <edge id=":15_0" function="internal">
    <lane id=":15_0_0" index="0" disallow="pedestrian tram rail_urban rail rail_electric rail_fast ship" speed="15.97" length="30.93" width="3.75" shape="413.48,612.10,0.00 418.24,611.20,0.00 424.76,608.96,0.00 432.65,605.17,0.00 441.51,599.64"/>
  </edge>
  <edge id=":15_1" function="internal">
    <lane id=":15_1_0" index="0" disallow="pedestrian tram rail_urban rail rail_electric rail_fast ship" speed="22.22" length="26.77" width="3.75" shape="419.69,615.25 441.51,599.64"/>
    <lane id=":15_1_1" index="1" disallow="pedestrian tram rail_urban rail rail_electric rail_fast ship" speed="22.22" length="26.77" width="3.75" shape="421.89,618.29 443.66,602.71"/>
    <lane id=":15_1_2" index="2" disallow="pedestrian tram rail_urban rail rail_electric rail_fast ship" speed="22.22" length="26.77" width="3.75" shape="424.10,621.32 445.82,605.77"/>
  </edge>
  <edge id=":15.14_0" function="internal">
    <lane id=":15.14_0_0" index="0" disallow="pedestrian tram rail_urban rail rail_electric rail_fast ship" speed="22.22" length="0.30" width="3.75" shape="590.51,656.13,20.00 590.33,655.90,20.00"/>
    <lane id=":15.14_0_1" index="1" disallow="pedestrian tram rail_urban rail rail_electric rail_fast ship" speed="22.22" length="0.30" width="3.75" shape="593.43,653.77,20.00 593.25,653.54,20.00"/>
    <lane id=":15.14_0_2" index="2" disallow="pedestrian tram rail_urban rail rail_electric rail_fast ship" speed="22.22" length="0.30" width="3.75" shape="596.35,651.42,20.00 596.16,651.18,20.00"/>
  </edge>
  <edge id=":19.18_0" function="internal">
    <lane id=":19.18_0_0" index="0" disallow="pedestrian tram rail_urban rail rail_electric rail_fast ship" speed="13.89" length="0.30" width="3.75" shape="631.17,874.17,10.86 630.89,874.07,10.85"/>
  </edge>
  <edge id=":2_0" function="internal">
    <lane id=":2_0_0" index="0" disallow="pedestrian tram rail_urban rail rail_electric rail_fast ship" speed="19.44" length="53.62" width="3.75" shape="78.21,65.92,20.00 88.25,75.66,20.00 100.57,86.73,20.00 111.67,96.34,20.00 118.10,101.72,20.00"/>
  </edge>
  <edge id=":2_1" function="internal">
    <lane id=":2_1_0" index="0" disallow="pedestrian tram rail_urban rail rail_electric rail_fast ship" speed="22.22" length="53.72" width="3.75" shape="78.21,65.92,20.00 115.21,104.87,20.00"/>
    <lane id=":2_1_1" index="1" disallow="pedestrian tram rail_urban rail rail_electric rail_fast ship" speed="22.22" length="53.72" width="3.75" shape="75.49,68.50,20.00 112.49,107.45,20.00"/>
    <lane id=":2_1_2" index="2" disallow="pedestrian tram rail_urban rail rail_electric rail_fast ship" speed="22.22" length="53.72" width="3.75" shape="72.77,71.08,20.00 109.77,110.03,20.00"/>
  </edge>
  <edge id=":2.1_0" function="internal">
    <lane id=":2.1_0_0" index="0" disallow="pedestrian tram rail_urban rail rail_electric rail_fast ship" speed="22.22" length="0.30" width="3.75" shape="435.22,632.09 434.98,632.26"/>
    <lane id=":2.1_0_1" index="1" disallow="pedestrian tram rail_urban rail rail_electric rail_fast ship" speed="22.22" length="0.30" width="3.75" shape="433.02,629.05 432.77,629.23"/>
    <lane id=":2.1_0_2" index="2" disallow="pedestrian tram rail_urban rail rail_electric rail_fast ship" speed="22.22" length="0.30" width="3.75" shape="430.81,626.02 430.57,626.20"/>
  </edge>
  <edge id=":23.22_0" function="internal">
    <lane id=":23.22_0_0" index="0" disallow="pedestrian tram rail_urban rail rail_electric rail_fast ship" speed="13.89" length="0.30" width="3.75" shape="184.96,604.37,8.17 184.97,604.07,8.18"/>
  </edge>
  <edge id=":27.26_0" function="internal">
    <lane id=":27.26_0_0" index="0" disallow="pedestrian tram rail_urban rail rail_electric rail_fast ship" speed="16.67" length="0.30" width="3.75" shape="375.27,258.20,11.93 375.55,258.29,11.92"/>
  </edge>
  <edge id=":3_0" function="internal">
    <lane id=":3_0_0" index="0" disallow="pedestrian tram rail_urban rail rail_electric rail_fast ship" speed="18.06" length="104.52" width="3.75" shape="943.63,1160.71,20.00 882.16,1076.18,20.00"/>
  </edge>
  <edge id=":3_1" function="internal">
    <lane id=":3_1_0" index="0" disallow="pedestrian tram rail_urban rail rail_electric rail_fast ship" speed="22.22" length="104.59" width="3.75" shape="943.63,1160.71,20.00 885.46,1073.80,20.00"/>
    <lane id=":3_1_1" index="1" disallow="pedestrian tram rail_urban rail rail_electric rail_fast ship" speed="22.22" length="104.59" width="3.75" shape="946.75,1158.63,20.00 888.57,1071.71,20.00"/>
    <lane id=":3_1_2" index="2" disallow="pedestrian tram rail_urban rail rail_electric rail_fast ship" speed="22.22" length="104.59" width="3.75" shape="949.87,1156.55,20.00 891.69,1069.62,20.00"/>
  </edge>
  <edge id=":30.29_0" function="internal">
    <lane id=":30.29_0_0" index="0" disallow="pedestrian tram rail_urban rail rail_electric rail_fast ship" speed="11.11" length="0.29" width="3.75" shape="839.98,706.19,9.81 839.96,706.49,9.82"/>
  </edge>
  <edge id=":33.32_0" function="internal">
    <lane id=":33.32_0_0" index="0" disallow="pedestrian tram rail_urban rail rail_electric rail_fast ship" speed="8.33" length="0.28" width="3.75" shape="481.18,599.27,8.09 481.47,599.29,8.09"/>
  </edge>
  <edge id=":35.34_0" function="internal">
    <lane id=":35.34_0_0" index="0" disallow="pedestrian tram rail_urban rail rail_electric rail_fast ship" speed="9.72" length="0.30" width="3.75" shape="517.73,950.72,9.18 517.44,950.69,9.18"/>
  </edge>
  <edge id=":37.36_0" function="internal">
    <lane id=":37.36_0_0" index="0" disallow="pedestrian tram rail_urban rail rail_electric rail_fast ship" speed="16.67" length="0.30" width="3.75" shape="670.44,580.43,8.33 670.43,580.73,8.33"/>
  </edge>
  <edge id=":39.38_0" function="internal">
    <lane id=":39.38_0_0" index="0" disallow="pedestrian tram rail_urban rail rail_electric rail_fast ship" speed="9.72" length="0.28" width="3.75" shape="388.61,549.69,9.76 388.54,549.96,9.72"/>
  </edge>
  <edge id=":4_0" function="internal">
    <lane id=":4_0_0" index="0" disallow="pedestrian tram rail_urban rail rail_electric rail_fast ship" speed="15.97" length="29.61" width="3.75" shape="467.25,514.63,20.00 460.11,507.48,20.00 453.67,502.22,20.00 448.19,498.70,20.00 443.94,496.74,20.00"/>
  </edge>
  <edge id=":4_1" function="internal">
    <lane id=":4_1_0" index="0" disallow="pedestrian tram rail_urban rail rail_electric rail_fast ship" speed="22.22" length="30.18" width="3.75" shape="467.25,514.63,20.00 446.96,492.31,20.00"/>
    <lane id=":4_1_1" index="1" disallow="pedestrian tram rail_urban rail rail_electric rail_fast ship" speed="22.22" length="30.18" width="3.75" shape="470.03,512.12,20.00 449.73,489.78,20.00"/>
    <lane id=":4_1_2" index="2" disallow="pedestrian tram rail_urban rail rail_electric rail_fast ship" speed="22.22" length="30.18" width="3.75" shape="472.81,509.60,20.00 452.51,487.25,20.00"/>
  </edge>
  <edge id=":5_0" function="internal">
    <lane id=":5_0_0" index="0" disallow="pedestrian tram rail_urban rail rail_electric rail_fast ship" speed="18.06" length="40.97" width="3.75" shape="171.19,863.95 165.74,867.31 157.19,873.14 147.41,880.45 138.29,888.26"/>
  </edge>
  <edge id=":5_1" function="internal">
    <lane id=":5_1_0" index="0" disallow="pedestrian tram rail_urban rail rail_electric rail_fast ship" speed="22.22" length="40.33" width="3.75" shape="167.65,860.64 138.29,888.26"/>
    <lane id=":5_1_1" index="1" disallow="pedestrian tram rail_urban rail rail_electric rail_fast ship" speed="22.22" length="40.33" width="3.75" shape="165.08,857.90 135.71,885.53"/>
    <lane id=":5_1_2" index="2" disallow="pedestrian tram rail_urban rail rail_electric rail_fast ship" speed="22.22" length="40.33" width="3.75" shape="162.52,855.16 133.14,882.81"/>
  </edge>
  <edge id=":6_0" function="internal">
    <lane id=":6_0_0" index="0" disallow="pedestrian tram rail_urban rail rail_electric rail_fast ship" speed="18.06" length="25.21" width="3.75" shape="113.67,144.34,19.94 112.12,140.28,19.95 109.83,135.23,19.97 106.27,129.35,19.98 100.90,122.82,20.00"/>
  </edge>
  <edge id=":6_1" function="internal">
    <lane id=":6_1_0" index="0" disallow="pedestrian tram rail_urban rail rail_electric rail_fast ship" speed="22.22" length="24.07" width="3.75" shape="117.48,140.28,20.00 100.90,122.82,20.00"/>
    <lane id=":6_1_1" index="1" disallow="pedestrian tram rail_urban rail rail_electric rail_fast ship" speed="22.22" length="24.07" width="3.75" shape="120.20,137.69,20.00 103.62,120.24,20.00"/>
    <lane id=":6_1_2" index="2" disallow="pedestrian tram rail_urban rail rail_electric rail_fast ship" speed="22.22" length="24.07" width="3.75" shape="122.92,135.11,20.00 106.34,117.66,20.00"/>
  </edge>
  <edge id=":6.5_0" function="internal">
    <lane id=":6.5_0_0" index="0" disallow="pedestrian tram rail_urban rail rail_electric rail_fast ship" speed="22.22" length="2.56" width="3.75" shape="421.60,613.87 419.53,615.37"/>
    <lane id=":6.5_0_1" index="1" disallow="pedestrian tram rail_urban rail rail_electric rail_fast ship" speed="22.22" length="2.56" width="3.75" shape="423.80,616.90 421.73,618.40"/>
    <lane id=":6.5_0_2" index="2" disallow="pedestrian tram rail_urban rail rail_electric rail_fast ship" speed="22.22" length="2.56" width="3.75" shape="426.01,619.93 423.93,621.44"/>
  </edge>
  <edge id=":7_0" function="internal">
    <lane id=":7_0_0" index="0" disallow="pedestrian tram rail_urban rail rail_electric rail_fast ship" speed="13.89" length="17.27" width="3.75" shape="185.17,739.60,4.83 186.05,722.35,4.88"/>
  </edge>
  <edge id=":7_1" function="internal">
    <lane id=":7_1_0" index="0" disallow="pedestrian tram rail_urban rail rail_electric rail_fast ship" speed="11.11" length="18.58" width="3.75" shape="185.17,739.60,4.83 185.90,735.36,4.84 187.30,730.57,4.86 189.12,725.93,4.87 191.11,722.11,4.89"/>
  </edge>
  <edge id=":8_0" function="internal">
    <lane id=":8_0_0" index="0" disallow="pedestrian tram rail_urban rail rail_electric rail_fast ship" speed="19.44" length="49.00" width="3.75" shape="831.89,345.98,0.14 838.95,343.02,0.12 850.88,337.59,0.08 864.32,331.01,0.04 875.96,324.63"/>
  </edge>
  <edge id=":8_1" function="internal">
    <lane id=":8_1_0" index="0" disallow="pedestrian tram rail_urban rail rail_electric rail_fast ship" speed="22.22" length="48.47" width="3.75" shape="834.52,349.79 875.96,324.63"/>
    <lane id=":8_1_1" index="1" disallow="pedestrian tram rail_urban rail rail_electric rail_fast ship" speed="22.22" length="48.47" width="3.75" shape="836.47,352.99 877.90,327.84"/>
    <lane id=":8_1_2" index="2" disallow="pedestrian tram rail_urban rail rail_electric rail_fast ship" speed="22.22" length="48.47" width="3.75" shape="838.42,356.20 879.84,331.04"/>
  </edge>
  <edge id=":9_0" function="internal">
    <lane id=":9_0_0" index="0" disallow="pedestrian tram rail_urban rail rail_electric rail_fast ship" speed="16.67" length="2.99" width="3.75" shape="350.81,248.56,12.75 353.55,249.77,12.65"/>
  </edge>
  <edge id=":9_1" function="internal">
    <lane id=":9_1_0" index="0" disallow="pedestrian tram rail_urban rail rail_electric rail_fast ship" speed="16.67" length="3.00" width="3.75" shape="350.81,248.56,12.75 353.56,249.78,12.70"/>
  </edge>
  <edge id="-0" from="0.begin" to="0" priority="1" type="driving" shape="1102.73,202.87 1101.69,203.53 1100.61,204.20 1099.50,204.89 1098.36,205.60 1097.18,206.33 1095.98,207.08 1094.74,207.85 1093.46,208.63 1092.16,209.43 1090.83,210.26 1089.46,211.10 1088.06,211.95 1086.64,212.83 1085.18,213.72 1083.69,214.63 1082.18,215.56 1080.63,216.51 1079.05,217.47 1077.45,218.45 1075.81,219.45 1074.15,220.46 1072.46,221.49 1070.74,222.54 1068.99,223.60 1067.21,224.68 1065.41,225.77 1063.58,226.88 1061.72,228.01 1059.84,229.15 1057.93,230.31 1055.99,231.48 1054.03,232.67 1052.04,233.88 1050.03,235.10 1047.99,236.33 1045.92,237.58 1043.83,238.84 1041.72,240.12 1039.58,241.41 1037.42,242.72 1035.23,244.04 1033.02,245.38 1030.79,246.73 1028.53,248.09 1026.25,249.47">
    <lane id="-0_0" index="0" disallow="pedestrian tram rail_urban rail rail_electric rail_fast ship" speed="22.22" length="85.63" width="3.75" shape="1107.71,210.82 1106.66,211.48 1105.57,212.15 1104.45,212.85 1103.30,213.57 1102.12,214.30 1100.91,215.05 1099.66,215.82 1098.39,216.61 1097.08,217.42 1095.74,218.24 1094.37,219.08 1092.97,219.94 1091.54,220.82 1090.08,221.72 1088.59,222.63 1087.07,223.56 1085.52,224.51 1083.94,225.47 1082.33,226.45 1080.69,227.45 1079.03,228.47 1077.33,229.50 1075.61,230.54 1073.86,231.61 1072.08,232.69 1070.28,233.79 1068.45,234.90 1066.59,236.03 1064.70,237.17 1062.79,238.33 1060.85,239.50 1058.89,240.69 1056.90,241.90 1054.88,243.12 1052.84,244.35 1050.78,245.60 1048.68,246.87 1046.57,248.14 1044.43,249.44 1042.27,250.75 1040.08,252.07 1037.87,253.40 1035.64,254.75 1034.54,255.41" type="driving"/>
    <lane id="-0_1" index="1" disallow="pedestrian tram rail_urban rail rail_electric rail_fast ship" speed="22.22" length="85.63" width="3.75" shape="1105.72,207.64 1104.67,208.30 1103.59,208.97 1102.47,209.67 1101.33,210.38 1100.15,211.11 1098.94,211.86 1097.69,212.63 1096.42,213.42 1095.11,214.22 1093.77,215.05 1092.41,215.89 1091.01,216.75 1089.58,217.62 1088.12,218.52 1086.63,219.43 1085.11,220.36 1083.56,221.31 1081.98,222.27 1080.38,223.25 1078.74,224.25 1077.08,225.26 1075.38,226.29 1073.66,227.34 1071.91,228.40 1070.14,229.48 1068.33,230.58 1066.50,231.69 1064.64,232.82 1062.76,233.96 1060.85,235.12 1058.91,236.30 1056.94,237.49 1054.95,238.69 1052.94,239.91 1050.90,241.14 1048.83,242.39 1046.74,243.66 1044.63,244.94 1042.49,246.23 1040.33,247.54 1038.14,248.86 1035.93,250.19 1033.70,251.54 1032.60,252.20" type="driving"/>
    <lane id="-0_2" index="2" disallow="pedestrian tram rail_urban rail rail_electric rail_fast ship" speed="22.22" length="85.63" width="3.75" shape="1103.73,204.46 1102.68,205.12 1101.60,205.79 1100.49,206.48 1099.35,207.19 1098.17,207.92 1096.96,208.67 1095.72,209.44 1094.45,210.23 1093.14,211.03 1091.81,211.85 1090.44,212.69 1089.05,213.55 1087.62,214.43 1086.16,215.32 1084.67,216.23 1083.15,217.16 1081.61,218.11 1080.03,219.07 1078.42,220.05 1076.79,221.05 1075.12,222.06 1073.43,223.09 1071.71,224.14 1069.96,225.20 1068.19,226.28 1066.38,227.37 1064.55,228.49 1062.70,229.61 1060.81,230.76 1058.90,231.91 1056.96,233.09 1055.00,234.28 1053.01,235.48 1051.00,236.70 1048.96,237.94 1046.89,239.18 1044.80,240.45 1042.69,241.73 1040.55,243.02 1038.39,244.33 1036.20,245.65 1033.99,246.98 1031.76,248.33 1030.66,248.99" type="driving"/>
  </edge>
  <edge id="-1" from="0" to="2.1" priority="1" type="driving" shape="1026.25,249.47 1024.93,250.26 1023.61,251.06 1022.28,251.87 1020.94,252.67 1019.59,253.49 1018.23,254.30 1016.87,255.13 1015.50,255.95 1014.13,256.78 1012.74,257.62 1011.35,258.46 1009.96,259.30 1008.55,260.15 1007.14,261.00 1005.72,261.85 1004.30,262.71 1002.87,263.57 1001.43,264.44 999.99,265.31 998.53,266.19 997.08,267.07 995.61,267.95 994.14,268.84 992.66,269.73 991.18,270.62 989.69,271.52 988.20,272.42 986.69,273.33 985.18,274.24 983.67,275.15 982.15,276.07 980.62,276.99 979.09,277.92 977.55,278.84 976.00,279.78 974.45,280.71 972.90,281.65 971.34,282.59 969.77,283.54 968.19,284.49 966.61,285.44 965.03,286.40 963.44,287.36 961.84,288.32 960.24,289.29 958.63,290.26 957.02,291.23 955.40,292.20 953.78,293.18 952.15,294.17 950.52,295.15 948.88,296.14 947.24,297.13 945.59,298.13 943.93,299.13 942.28,300.13 940.61,301.13 938.94,302.14 937.27,303.15 935.59,304.17 933.91,305.18 932.22,306.20 930.53,307.22 928.83,308.25 927.13,309.28 925.42,310.31 923.71,311.34 922.00,312.38 920.28,313.42 918.56,314.46 916.83,315.51 915.10,316.55 913.36,317.60 911.62,318.66 909.87,319.71 908.13,320.77 906.37,321.83 904.62,322.89 902.86,323.96 901.09,325.03 899.32,326.10 897.55,327.17 895.78,328.25 894.00,329.32 892.21,330.40 890.43,331.49 888.64,332.57 886.84,333.66 885.04,334.75 883.24,335.84 881.44,336.93 879.63,338.03 877.82,339.13 876.01,340.23 874.19,341.33 872.37,342.43 870.55,343.54 868.72,344.65 866.89,345.76 865.06,346.87 863.22,347.98 861.38,349.10 859.54,350.22 857.70,351.34 855.85,352.46 854.00,353.58 852.15,354.71 850.29,355.84 848.44,356.97 846.58,358.10 844.71,359.23 842.85,360.37 840.98,361.50 839.11,362.64 837.24,363.78 835.37,364.92 833.49,366.06 831.61,367.21 829.73,368.35 827.85,369.50 825.96,370.65 824.08,371.80 822.19,372.95 820.30,374.10 818.41,375.25 816.51,376.41 814.62,377.57 812.72,378.72 810.82,379.88 808.92,381.04 807.02,382.21 805.11,383.37 803.21,384.53 801.30,385.70 799.39,386.87 797.48,388.03 795.57,389.20 793.66,390.37 791.75,391.54 789.83,392.71 787.92,393.89 786.00,395.06 784.08,396.23 782.16,397.41 780.24,398.59 778.32,399.76 776.40,400.94 774.48,402.12 772.56,403.30 770.63,404.48 768.71,405.66 766.78,406.84 764.86,408.02 762.93,409.21 761.01,410.39 759.08,411.58 757.15,412.76 755.22,413.95 753.30,415.13 751.37,416.32 749.44,417.51 747.51,418.69 745.58,419.88 743.65,421.07 741.72,422.26 739.80,423.45 737.87,424.64 735.94,425.82 734.01,427.01 732.08,428.20 730.15,429.40 728.23,430.59 726.30,431.78 724.37,432.97 722.44,434.16 720.52,435.35 718.59,436.54 716.67,437.73 714.74,438.92 712.82,440.11 710.90,441.31 708.97,442.50 707.05,443.69 705.13,444.88 703.21,446.07 701.29,447.26 699.37,448.45 697.46,449.64 695.54,450.83 693.63,452.02 691.71,453.21 689.80,454.40 687.89,455.59 685.98,456.78 684.07,457.97 682.16,459.16 680.26,460.34 678.35,461.53 676.45,462.72 674.55,463.90 672.65,465.09 670.75,466.27 668.85,467.46 666.96,468.64 665.07,469.83 663.18,471.01 661.29,472.19 659.40,473.37 657.51,474.55 655.63,475.73 653.75,476.91 651.87,478.09 649.99,479.27 648.12,480.45 646.25,481.62 644.38,482.80 642.51,483.97 640.64,485.14 638.78,486.32 636.92,487.49 635.06,488.66 633.21,489.83 631.35,491.00 629.50,492.16 627.65,493.33 625.81,494.49 623.97,495.66 622.13,496.82 620.29,497.98 618.46,499.14 616.63,500.30 614.80,501.46 612.98,502.61 611.15,503.77 609.34,504.92 607.52,506.07 605.71,507.23 603.90,508.37 602.09,509.52 600.29,510.67 598.49,511.81 596.70,512.96 594.91,514.10 593.12,515.24 591.34,516.38 589.56,517.52 587.78,518.65 586.01,519.78 584.24,520.92 582.47,522.05 580.71,523.18 578.95,524.30 577.20,525.43 575.45,526.55 573.70,527.67 571.96,528.79 570.22,529.91 568.49,531.02 566.76,532.14 565.03,533.25 563.31,534.36 561.60,535.47 559.88,536.57 558.18,537.68 556.47,538.78 554.78,539.88 553.08,540.97 551.39,542.07 549.71,543.16 548.03,544.25 546.35,545.34 544.68,546.43 543.02,547.51 541.36,548.59 539.70,549.67 538.05,550.75 536.41,551.82 534.77,552.90 533.13,553.96 531.50,555.03 529.88,556.10 528.26,557.16 526.65,558.22 525.04,559.27 523.43,560.33 521.84,561.38 520.24,562.43 518.66,563.48 517.08,564.52 515.50,565.56 513.93,566.60 512.37,567.64 510.81,568.67 509.25,569.70 507.71,570.72 506.17,571.75 504.63,572.77 503.10,573.79 501.58,574.80 500.06,575.82 498.55,576.83 497.05,577.83 495.55,578.84 494.06,579.84 492.57,580.83 491.10,581.83 489.62,582.82 488.16,583.81 486.70,584.79 485.24,585.77 483.80,586.75 482.36,587.73 480.92,588.70 479.50,589.67 478.08,590.63 476.66,591.59 475.26,592.55 473.86,593.51 472.47,594.46 471.08,595.41 469.70,596.35 468.33,597.29 466.97,598.23 465.61,599.16 464.26,600.09 462.92,601.02 461.58,601.94 460.26,602.86 458.93,603.78 457.62,604.69 456.32,605.60 455.02,606.51 453.73,607.41 452.45,608.30 451.17,609.20 449.90,610.09 448.64,610.97 447.39,611.85 446.15,612.73 444.91,613.60 443.69,614.47 442.47,615.34 441.25,616.20 440.05,617.06 438.85,617.91 437.67,618.76 436.49,619.61 435.32,620.45 434.15,621.29 433.00,622.12 431.85,622.95 430.72,623.77 429.59,624.59">