<?xml version='1.0' encoding='UTF-8'?>
<!-- generated on 2022-11-12 23:07:49 by Eclipse SUMO netconvert Version 1.13.0
<configuration xmlns:xsi="http://www.w3.org/2001/XMLSchema-instance" xsi:noNamespaceSchemaLocation="http://sumo.dlr.de/xsd/netconvertConfiguration.xsd">

    <input>
        <opendrive-files value="map_v4\9\3666\3666.xodr"/>
    </input>

    <output>
        <output-file value="C:\Users\LinGe\AppData\Local\Temp\tmpe746und6\3666.net.xml"/>
    </output>

    <processing>
        <geometry.max-grade.fix value="false"/>
    </processing>

    <tls_building>
        <tls.left-green.time value="0"/>
    </tls_building>

    <junctions>
        <rectangular-lane-cut value="true"/>
    </junctions>

    <report>
        <aggregate-warnings value="5"/>
    </report>

</configuration>
-->
<net xmlns:xsi="http://www.w3.org/2001/XMLSchema-instance" version="1.9" junctionCornerDetail="5" rectangularLaneCut="true" limitTurnSpeed="5.50" xsi:noNamespaceSchemaLocation="http://sumo.dlr.de/xsd/net_file.xsd">
  <location netOffset="1.56,146.01" convBoundary="0.00,0.00,1150.31,1347.26" origBoundary="-1.56,-146.01,1148.76,1201.26" projParameter="!"/>
  <type id="bidirectional" priority="1" speed="1.39" disallow="pedestrian tram rail_urban rail rail_electric rail_fast ship" width="3.65"/>
  <type id="border" priority="0" speed="1.39" disallow="all" discard="1" width="0.10"/>
  <type id="driving" priority="1" speed="13.89" disallow="pedestrian tram rail_urban rail rail_electric rail_fast ship" width="3.65"/>
  <type id="entry" priority="1" speed="22.22" disallow="pedestrian tram rail_urban rail rail_electric rail_fast ship" width="3.65"/>
  <type id="exit" priority="1" speed="22.22" disallow="pedestrian tram rail_urban rail rail_electric rail_fast ship" width="3.65"/>
  <type id="median" priority="0" speed="1.39" disallow="all" discard="1" width="0.10"/>
  <type id="mwyEntry" priority="1" speed="22.22" allow="private emergency authority army vip passenger hov taxi bus coach delivery truck trailer motorcycle evehicle custom1 custom2" width="3.65"/>
  <type id="mwyExit" priority="1" speed="22.22" allow="private emergency authority army vip passenger hov taxi bus coach delivery truck trailer motorcycle evehicle custom1 custom2" width="3.65"/>
  <type id="none" priority="0" speed="1.39" disallow="all" discard="1" width="1.00"/>
  <type id="offRamp" priority="1" speed="22.22" allow="private emergency authority army vip passenger hov taxi bus coach delivery truck trailer motorcycle evehicle custom1 custom2" width="3.65"/>
  <type id="onRamp" priority="1" speed="22.22" allow="private emergency authority army vip passenger hov taxi bus coach delivery truck trailer motorcycle evehicle custom1 custom2" width="3.65"/>
  <type id="parking" priority="1" speed="1.39" disallow="pedestrian tram rail_urban rail rail_electric rail_fast ship" width="2.50"/>
  <type id="rail" priority="3" speed="33.33" allow="rail_urban rail rail_electric rail_fast" width="3.65"/>
  <type id="restricted" priority="0" speed="13.89" disallow="all" width="3.65"/>
  <type id="roadWorks" priority="0" speed="1.39" allow="authority" width="3.65"/>
  <type id="shoulder" priority="0" speed="1.39" disallow="all" discard="1" width="1.00"/>
  <type id="special1" priority="1" speed="22.22" allow="custom1" discard="1" width="3.65"/>
  <type id="special2" priority="1" speed="22.22" allow="custom2" discard="1" width="3.65"/>
  <type id="special3" priority="1" speed="22.22" allow="custom1 custom2" discard="1" width="3.65"/>
  <type id="stop" priority="1" speed="13.89" disallow="pedestrian tram rail_urban rail rail_electric rail_fast ship" width="3.65"/>
  <type id="tram" priority="2" speed="13.89" allow="tram" width="3.65"/>
  <edge id=":0_0" function="internal">
    <lane id=":0_0_0" index="0" disallow="pedestrian tram rail_urban rail rail_electric rail_fast ship" speed="20.83" length="40.34" width="3.75" shape="991.45,324.41 981.46,330.91,0.03 971.85,338.07,0.05 964.00,344.46,0.08 959.28,348.66,0.09"/>
  </edge>
  <edge id=":0_1" function="internal">
    <lane id=":0_1_0" index="0" disallow="pedestrian tram rail_urban rail rail_electric rail_fast ship" speed="22.22" length="40.57" width="3.75" shape="991.45,324.41 956.46,344.95"/>
    <lane id=":0_1_1" index="1" disallow="pedestrian tram rail_urban rail rail_electric rail_fast ship" speed="22.22" length="40.57" width="3.75" shape="989.55,321.18 954.56,341.72"/>
    <lane id=":0_1_2" index="2" disallow="pedestrian tram rail_urban rail rail_electric rail_fast ship" speed="22.22" length="40.57" width="3.75" shape="987.65,317.94 952.66,338.49"/>
  </edge>
  <edge id=":1_0" function="internal">
    <lane id=":1_0_0" index="0" disallow="pedestrian tram rail_urban rail rail_electric rail_fast ship" speed="20.83" length="73.53" width="3.75" shape="625.71,519.40 639.82,509.72,0.03 658.86,496.11,0.07 676.26,483.43,0.11 685.46,476.54,0.13"/>
  </edge>
  <edge id=":1_1" function="internal">
    <lane id=":1_1_0" index="0" disallow="pedestrian tram rail_urban rail rail_electric rail_fast ship" speed="22.22" length="73.74" width="3.75" shape="625.71,519.40 688.05,479.90"/>
    <lane id=":1_1_1" index="1" disallow="pedestrian tram rail_urban rail rail_electric rail_fast ship" speed="22.22" length="73.74" width="3.75" shape="627.74,522.55 690.03,483.08"/>
    <lane id=":1_1_2" index="2" disallow="pedestrian tram rail_urban rail rail_electric rail_fast ship" speed="22.22" length="73.74" width="3.75" shape="629.77,525.70 692.02,486.27"/>
  </edge>
  <edge id=":11.10_0" function="internal">
    <lane id=":11.10_0_0" index="0" disallow="pedestrian tram rail_urban rail rail_electric rail_fast ship" speed="22.22" length="0.30" width="3.75" shape="562.06,633.59,20.00 562.25,633.82,20.00"/>
    <lane id=":11.10_0_1" index="1" disallow="pedestrian tram rail_urban rail rail_electric rail_fast ship" speed="22.22" length="0.30" width="3.75" shape="559.15,635.95,20.00 559.34,636.18,20.00"/>
    <lane id=":11.10_0_2" index="2" disallow="pedestrian tram rail_urban rail rail_electric rail_fast ship" speed="22.22" length="0.30" width="3.75" shape="556.23,638.30,20.00 556.42,638.53,20.00"/>
  </edge>
  <edge id=":15.14_0" function="internal">
    <lane id=":15.14_0_0" index="0" disallow="pedestrian tram rail_urban rail rail_electric rail_fast ship" speed="22.22" length="0.30" width="3.75" shape="544.55,648.12,20.00 544.37,647.89,20.00"/>
    <lane id=":15.14_0_1" index="1" disallow="pedestrian tram rail_urban rail rail_electric rail_fast ship" speed="22.22" length="0.30" width="3.75" shape="547.47,645.76,20.00 547.28,645.53,20.00"/>
    <lane id=":15.14_0_2" index="2" disallow="pedestrian tram rail_urban rail rail_electric rail_fast ship" speed="22.22" length="0.30" width="3.75" shape="550.39,643.41,20.00 550.20,643.17,20.00"/>
  </edge>
  <edge id=":17.16_0" function="internal">
    <lane id=":17.16_0_0" index="0" disallow="pedestrian tram rail_urban rail rail_electric rail_fast ship" speed="11.11" length="0.30" width="3.75" shape="448.28,224.97,11.25 448.56,225.06,11.24"/>
  </edge>
  <edge id=":19.18_0" function="internal">
    <lane id=":19.18_0_0" index="0" disallow="pedestrian tram rail_urban rail rail_electric rail_fast ship" speed="19.44" length="0.30" width="3.75" shape="869.51,751.34,9.87 869.50,751.63,9.88"/>
  </edge>
  <edge id=":2_0" function="internal">
    <lane id=":2_0_0" index="0" disallow="pedestrian tram rail_urban rail rail_electric rail_fast ship" speed="16.67" length="33.30" width="3.75" shape="110.30,143.59,20.00 118.16,151.00,19.97 125.65,156.94,19.94 132.01,161.31,19.92 136.48,164.01,19.91"/>
  </edge>
  <edge id=":2_1" function="internal">
    <lane id=":2_1_0" index="0" disallow="pedestrian tram rail_urban rail rail_electric rail_fast ship" speed="22.22" length="33.56" width="3.75" shape="110.30,143.59,20.00 133.52,167.82,20.00"/>
    <lane id=":2_1_1" index="1" disallow="pedestrian tram rail_urban rail rail_electric rail_fast ship" speed="22.22" length="33.56" width="3.75" shape="107.60,146.18,20.00 130.81,170.42,20.00"/>
    <lane id=":2_1_2" index="2" disallow="pedestrian tram rail_urban rail rail_electric rail_fast ship" speed="22.22" length="33.56" width="3.75" shape="104.89,148.78,20.00 128.11,173.01,20.00"/>
  </edge>
  <edge id=":21.20_0" function="internal">
    <lane id=":21.20_0_0" index="0" disallow="pedestrian tram rail_urban rail rail_electric rail_fast ship" speed="19.44" length="0.30" width="3.75" shape="556.96,3.13,10.49 556.67,3.16,10.49"/>
  </edge>
  <edge id=":23.22_0" function="internal">
    <lane id=":23.22_0_0" index="0" disallow="pedestrian tram rail_urban rail rail_electric rail_fast ship" speed="19.44" length="0.30" width="3.75" shape="1147.19,663.89,9.55 1147.16,663.59,9.54"/>
  </edge>
  <edge id=":3_0" function="internal">
    <lane id=":3_0_0" index="0" disallow="pedestrian tram rail_urban rail rail_electric rail_fast ship" speed="20.83" length="69.55" width="3.75" shape="667.61,773.99,20.00 677.69,787.03,19.97 691.57,804.14,19.93 704.44,819.66,19.89 711.51,827.91,19.87"/>
  </edge>
  <edge id=":3_1" function="internal">
    <lane id=":3_1_0" index="0" disallow="pedestrian tram rail_urban rail rail_electric rail_fast ship" speed="22.22" length="69.73" width="3.75" shape="667.61,773.99,20.00 708.25,830.67,20.00"/>
    <lane id=":3_1_1" index="1" disallow="pedestrian tram rail_urban rail rail_electric rail_fast ship" speed="22.22" length="69.73" width="3.75" shape="664.57,776.18,20.00 705.20,832.85,20.00"/>
    <lane id=":3_1_2" index="2" disallow="pedestrian tram rail_urban rail rail_electric rail_fast ship" speed="22.22" length="69.73" width="3.75" shape="661.53,778.38,20.00 702.14,835.02,20.00"/>
  </edge>
  <edge id=":3.2_0" function="internal">
    <lane id=":3.2_0_0" index="0" disallow="pedestrian tram rail_urban rail rail_electric rail_fast ship" speed="22.22" length="0.30" width="3.75" shape="526.64,613.98 526.40,614.15"/>
    <lane id=":3.2_0_1" index="1" disallow="pedestrian tram rail_urban rail rail_electric rail_fast ship" speed="22.22" length="0.30" width="3.75" shape="524.43,610.94 524.19,611.12"/>
    <lane id=":3.2_0_2" index="2" disallow="pedestrian tram rail_urban rail rail_electric rail_fast ship" speed="22.22" length="0.30" width="3.75" shape="522.23,607.91 521.98,608.09"/>
  </edge>
  <edge id=":4_0" function="internal">
    <lane id=":4_0_0" index="0" disallow="pedestrian tram rail_urban rail rail_electric rail_fast ship" speed="16.67" length="32.06" width="3.75" shape="831.94,385.87,0.07 836.87,384.84,0.06 843.86,382.76,0.04 852.35,379.39,0.02 861.75,374.48"/>
  </edge>
  <edge id=":4_1" function="internal">
    <lane id=":4_1_0" index="0" disallow="pedestrian tram rail_urban rail rail_electric rail_fast ship" speed="22.22" length="31.06" width="3.75" shape="835.06,390.38 861.75,374.48"/>
    <lane id=":4_1_1" index="1" disallow="pedestrian tram rail_urban rail rail_electric rail_fast ship" speed="22.22" length="31.06" width="3.75" shape="836.98,393.60 863.67,377.71"/>
    <lane id=":4_1_2" index="2" disallow="pedestrian tram rail_urban rail rail_electric rail_fast ship" speed="22.22" length="31.06" width="3.75" shape="838.90,396.82 865.58,380.93"/>
  </edge>
  <edge id=":5_0" function="internal">
    <lane id=":5_0_0" index="0" disallow="pedestrian tram rail_urban rail rail_electric rail_fast ship" speed="20.83" length="101.95" width="3.75" shape="908.49,1110.57,20.00 916.81,1124.16,20.00 933.35,1150.72,20.00 951.03,1178.79,20.00 962.74,1196.88,20.00"/>
  </edge>
  <edge id=":5_1" function="internal">
    <lane id=":5_1_0" index="0" disallow="pedestrian tram rail_urban rail rail_electric rail_fast ship" speed="22.22" length="101.71" width="3.75" shape="905.17,1113.03,20.00 962.74,1196.88,20.00"/>
    <lane id=":5_1_1" index="1" disallow="pedestrian tram rail_urban rail rail_electric rail_fast ship" speed="22.22" length="101.71" width="3.75" shape="902.08,1115.16,20.00 959.65,1199.00,20.00"/>
    <lane id=":5_1_2" index="2" disallow="pedestrian tram rail_urban rail rail_electric rail_fast ship" speed="22.22" length="101.71" width="3.75" shape="898.99,1117.28,20.00 956.56,1201.13,20.00"/>
  </edge>
  <edge id=":5.4_0" function="internal">
    <lane id=":5.4_0_0" index="0" disallow="pedestrian tram rail_urban rail rail_electric rail_fast ship" speed="22.22" length="0.30" width="3.75" shape="513.01,595.76 513.26,595.58"/>
    <lane id=":5.4_0_1" index="1" disallow="pedestrian tram rail_urban rail rail_electric rail_fast ship" speed="22.22" length="0.30" width="3.75" shape="515.22,598.79 515.46,598.61"/>
    <lane id=":5.4_0_2" index="2" disallow="pedestrian tram rail_urban rail rail_electric rail_fast ship" speed="22.22" length="0.30" width="3.75" shape="517.43,601.82 517.67,601.65"/>
  </edge>
  <edge id=":6_0" function="internal">
    <lane id=":6_0_0" index="0" disallow="pedestrian tram rail_urban rail rail_electric rail_fast ship" speed="20.83" length="79.00" width="3.75" shape="430.73,477.21,19.83 438.33,486.93,19.86 452.96,505.21,19.91 468.91,524.83,19.96 480.48,538.57,20.00"/>
  </edge>
  <edge id=":6_1" function="internal">
    <lane id=":6_1_0" index="0" disallow="pedestrian tram rail_urban rail rail_electric rail_fast ship" speed="22.22" length="78.67" width="3.75" shape="427.71,480.17,20.00 480.48,538.57,20.00"/>
    <lane id=":6_1_1" index="1" disallow="pedestrian tram rail_urban rail rail_electric rail_fast ship" speed="22.22" length="78.67" width="3.75" shape="424.94,482.70,20.00 477.68,541.07,20.00"/>
    <lane id=":6_1_2" index="2" disallow="pedestrian tram rail_urban rail rail_electric rail_fast ship" speed="22.22" length="78.67" width="3.75" shape="422.17,485.23,20.00 474.89,543.56,20.00"/>
  </edge>
  <edge id=":7_0" function="internal">
    <lane id=":7_0_0" index="0" disallow="pedestrian tram rail_urban rail rail_electric rail_fast ship" speed="20.83" length="87.77" width="3.75" shape="714.59,495.11 702.54,501.65 679.46,514.52 654.85,528.50 638.24,538.38"/>
  </edge>
  <edge id=":7_1" function="internal">
    <lane id=":7_1_0" index="0" disallow="pedestrian tram rail_urban rail rail_electric rail_fast ship" speed="22.22" length="87.53" width="3.75" shape="712.18,491.66 638.24,538.38"/>
    <lane id=":7_1_1" index="1" disallow="pedestrian tram rail_urban rail rail_electric rail_fast ship" speed="22.22" length="87.53" width="3.75" shape="710.21,488.48 636.21,535.23"/>
    <lane id=":7_1_2" index="2" disallow="pedestrian tram rail_urban rail rail_electric rail_fast ship" speed="22.22" length="87.53" width="3.75" shape="708.23,485.29 634.18,532.08"/>
  </edge>
  <edge id="-0" from="0.begin" to="0" priority="1" type="driving" shape="1102.73,247.62 1101.71,248.25 1100.66,248.90 1099.59,249.55 1098.50,250.22 1097.38,250.90 1096.24,251.60 1095.08,252.30 1093.90,253.02 1092.69,253.75 1091.46,254.49 1090.21,255.25 1088.94,256.02 1087.64,256.80 1086.33,257.59 1084.99,258.39 1083.63,259.20 1082.26,260.03 1080.86,260.87 1079.43,261.71 1077.99,262.57 1076.53,263.45 1075.05,264.33 1073.55,265.22 1072.03,266.13 1070.49,267.04 1068.92,267.97 1067.34,268.91 1065.74,269.85 1064.13,270.81 1062.49,271.78 1060.83,272.76 1059.16,273.75 1057.46,274.75 1055.75,275.76 1054.02,276.78 1052.27,277.82 1050.51,278.86 1048.72,279.91 1046.92,280.97 1045.10,282.04 1043.27,283.12 1041.41,284.21 1039.54,285.31 1037.66,286.42 1035.75,287.54 1033.83,288.67 1031.90,289.81 1029.95,290.95 1027.98,292.11 1025.99,293.28 1023.99,294.45 1021.98,295.63 1019.95,296.82 1017.90,298.02 1015.84,299.23 1013.77,300.45 1011.68,301.68 1009.57,302.91 1007.45,304.15 1005.32,305.41 1003.17,306.67 1001.01,307.93 998.84,309.21 996.65,310.49 994.45,311.78 992.23,313.08 990.00,314.39 987.76,315.70 985.51,317.03 983.24,318.36">
    <lane id="-0_0" index="0" disallow="pedestrian tram rail_urban rail rail_electric rail_fast ship" speed="22.22" length="134.97" width="3.75" shape="1107.65,255.60 1106.62,256.24 1105.57,256.89 1104.49,257.55 1103.39,258.22 1102.26,258.91 1101.11,259.61 1099.95,260.32 1098.76,261.04 1097.54,261.77 1096.31,262.52 1095.05,263.28 1093.78,264.05 1092.48,264.83 1091.16,265.62 1089.81,266.43 1088.45,267.24 1087.07,268.07 1085.67,268.91 1084.24,269.76 1082.80,270.63 1081.33,271.50 1079.85,272.38 1078.34,273.28 1076.82,274.19 1075.27,275.10 1073.71,276.03 1072.13,276.97 1070.52,277.92 1068.90,278.88 1067.26,279.85 1065.60,280.83 1063.93,281.82 1062.23,282.82 1060.52,283.84 1058.78,284.86 1057.03,285.89 1055.27,286.93 1053.48,287.99 1051.68,289.05 1049.86,290.12 1048.02,291.20 1046.17,292.29 1044.30,293.39 1042.41,294.50 1040.50,295.62 1038.58,296.75 1036.65,297.89 1034.69,299.04 1032.73,300.19 1030.74,301.36 1028.74,302.53 1026.73,303.72 1024.69,304.91 1022.65,306.11 1020.59,307.32 1018.51,308.54 1016.42,309.76 1014.32,311.00 1012.20,312.24 1010.06,313.49 1007.92,314.75 1005.76,316.02 1003.58,317.29 1001.39,318.58 999.19,319.87 996.98,321.17 994.75,322.48 992.51,323.79 991.45,324.41" type="driving"/>
    <lane id="-0_1" index="1" disallow="pedestrian tram rail_urban rail rail_electric rail_fast ship" speed="22.22" length="134.97" width="3.75" shape="1105.68,252.41 1104.66,253.04 1103.60,253.69 1102.53,254.35 1101.43,255.02 1100.31,255.71 1099.17,256.40 1098.00,257.11 1096.81,257.83 1095.60,258.56 1094.37,259.31 1093.12,260.07 1091.84,260.84 1090.54,261.62 1089.23,262.41 1087.89,263.21 1086.53,264.03 1085.14,264.85 1083.74,265.69 1082.32,266.54 1080.88,267.40 1079.41,268.28 1077.93,269.16 1076.42,270.06 1074.90,270.96 1073.36,271.88 1071.80,272.81 1070.21,273.74 1068.61,274.69 1066.99,275.65 1065.35,276.62 1063.69,277.60 1062.02,278.59 1060.32,279.60 1058.61,280.61 1056.88,281.63 1055.13,282.66 1053.36,283.70 1051.58,284.76 1049.78,285.82 1047.96,286.89 1046.12,287.97 1044.27,289.06 1042.40,290.16 1040.51,291.27 1038.60,292.39 1036.68,293.52 1034.75,294.66 1032.79,295.80 1030.83,296.96 1028.84,298.13 1026.84,299.30 1024.83,300.48 1022.80,301.67 1020.75,302.88 1018.69,304.08 1016.61,305.30 1014.52,306.53 1012.42,307.76 1010.30,309.01 1008.17,310.26 1006.02,311.52 1003.86,312.78 1001.68,314.06 999.50,315.34 997.29,316.64 995.08,317.93 992.85,319.24 990.61,320.56 989.55,321.18" type="driving"/>
    <lane id="-0_2" index="2" disallow="pedestrian tram rail_urban rail rail_electric rail_fast ship" speed="22.22" length="134.97" width="3.75" shape="1103.72,249.22 1102.69,249.85 1101.64,250.50 1100.57,251.15 1099.48,251.82 1098.36,252.50 1097.22,253.20 1096.05,253.91 1094.87,254.62 1093.66,255.36 1092.43,256.10 1091.18,256.86 1089.91,257.62 1088.61,258.40 1087.29,259.19 1085.96,260.00 1084.60,260.81 1083.22,261.64 1081.82,262.47 1080.40,263.32 1078.95,264.18 1077.49,265.06 1076.01,265.94 1074.51,266.83 1072.99,267.74 1071.44,268.65 1069.88,269.58 1068.30,270.52 1066.70,271.47 1065.08,272.43 1063.44,273.40 1061.79,274.38 1060.11,275.37 1058.42,276.37 1056.70,277.38 1054.97,278.40 1053.22,279.43 1051.46,280.47 1049.67,281.52 1047.87,282.59 1046.05,283.66 1044.22,284.74 1042.36,285.83 1040.49,286.93 1038.61,288.04 1036.70,289.16 1034.78,290.29 1032.85,291.42 1030.90,292.57 1028.93,293.73 1026.94,294.89 1024.94,296.07 1022.93,297.25 1020.90,298.44 1018.85,299.64 1016.79,300.85 1014.72,302.07 1012.63,303.29 1010.52,304.53 1008.40,305.77 1006.27,307.02 1004.12,308.28 1001.96,309.55 999.79,310.83 997.60,312.11 995.40,313.40 993.18,314.70 990.95,316.01 988.71,317.32 987.65,317.94" type="driving"/>
  </edge>
  <edge id="-1" from="0" to="7" priority="1" type="driving" shape="983.24,318.36 981.77,319.22 980.29,320.09 978.80,320.96 977.32,321.83 975.82,322.71 974.32,323.59 972.82,324.47 971.31,325.36 969.79,326.25 968.27,327.14 966.75,328.03 965.22,328.93 963.69,329.83 962.15,330.73 960.61,331.64 959.06,332.55 957.51,333.46 955.95,334.38 954.39,335.29 952.83,336.21 951.26,337.13 949.68,338.06 948.10,338.99 946.52,339.92 944.93,340.85 943.34,341.79 941.75,342.72 940.15,343.67 938.55,344.61 936.94,345.55 935.33,346.50 933.71,347.45 932.10,348.41 930.47,349.36 928.85,350.32 927.22,351.28 925.58,352.24 923.95,353.21 922.30,354.17 920.66,355.14 919.01,356.12 917.36,357.09 915.71,358.07 914.05,359.04 912.39,360.03 910.72,361.01 909.05,361.99 907.38,362.98 905.71,363.97 904.03,364.96 902.35,365.95 900.66,366.95 898.98,367.95 897.29,368.95 895.59,369.95 893.90,370.95 892.20,371.96 890.50,372.96 888.79,373.97 887.09,374.98 885.38,376.00 883.67,377.01 881.95,378.03 880.23,379.05 878.51,380.07 876.79,381.09 875.07,382.11 873.34,383.14 871.61,384.16 869.88,385.19 868.15,386.22 866.41,387.25 864.67,388.29 862.93,389.32 861.19,390.36 859.45,391.40 857.70,392.43 855.95,393.48 854.20,394.52 852.45,395.56 850.70,396.61 848.94,397.65 847.18,398.70 845.43,399.75 843.67,400.80 841.90,401.85 840.14,402.91 838.38,403.96 836.61,405.02 834.84,406.08 833.07,407.13 831.30,408.19 829.53,409.26 827.76,410.32 825.98,411.38 824.21,412.44 822.43,413.51 820.65,414.58 818.87,415.64 817.09,416.71 815.31,417.78 813.53,418.85 811.75,419.92 809.97,421.00 808.18,422.07 806.40,423.14 804.61,424.22 802.83,425.29 801.04,426.37 799.25,427.45 797.46,428.53 795.68,429.61 793.89,430.69 792.10,431.77 790.31,432.85 788.52,433.93 786.73,435.01 784.94,436.10 783.15,437.18 781.36,438.26 779.57,439.35 777.78,440.44 775.99,441.52 774.20,442.61 772.41,443.70 770.62,444.78 768.82,445.87 767.04,446.96 765.25,448.05 763.46,449.14 761.67,450.23 759.88,451.32 758.09,452.41 756.30,453.50 754.51,454.59 752.73,455.68 750.94,456.78 749.16,457.87 747.37,458.96 745.59,460.05 743.80,461.14 742.02,462.24 740.24,463.33 738.46,464.42 736.68,465.52 734.90,466.61 733.12,467.70 731.35,468.80 729.57,469.89 727.80,470.98 726.02,472.07 724.25,473.17 722.48,474.26 720.71,475.35 718.94,476.45 717.18,477.54 715.41,478.63 713.65,479.72 711.89,480.82 710.13,481.91 708.37,483.00 706.61,484.09 704.85,485.18 703.10,486.27 701.35,487.36 699.60,488.45 697.85,489.54 696.10,490.63 694.36,491.72 692.62,492.81 690.88,493.89 689.14,494.98 687.40,496.07 685.67,497.16 683.94,498.24 682.21,499.33 680.48,500.41 678.76,501.49 677.03,502.58 675.31,503.66 673.60,504.74 671.88,505.82 670.17,506.90 668.46,507.98 666.75,509.06 665.05,510.14 663.35,511.22 661.65,512.30 659.95,513.37 658.26,514.45 656.57,515.52 654.88,516.59 653.20,517.67 651.52,518.74 649.84,519.81 648.16,520.88 646.49,521.95 644.82,523.01 643.16,524.08 641.49,525.14 639.84,526.21 638.18,527.27 636.53,528.33">
    <lane id="-1_0" index="0" disallow="pedestrian tram rail_urban rail rail_electric rail_fast ship" speed="22.22" length="285.04" width="3.75" shape="956.46,344.95 956.01,345.22 954.43,346.14 952.86,347.07 951.27,348.00 949.69,348.93 948.10,349.87 946.50,350.81 944.90,351.75 943.30,352.69 941.70,353.63 940.08,354.58 938.47,355.53 936.85,356.48 935.23,357.44 933.60,358.40 931.98,359.36 930.34,360.32 928.71,361.28 927.07,362.25 925.42,363.22 923.77,364.19 922.12,365.17 920.47,366.14 918.81,367.12 917.15,368.10 915.49,369.08 913.82,370.07 912.15,371.05 910.47,372.04 908.80,373.03 907.12,374.03 905.43,375.02 903.75,376.02 902.06,377.02 900.37,378.02 898.67,379.02 896.97,380.02 895.27,381.03 893.57,382.04 891.87,383.05 890.16,384.06 888.45,385.08 886.73,386.09 885.02,387.11 883.30,388.13 881.58,389.15 879.85,390.17 878.13,391.20 876.40,392.22 874.67,393.25 872.94,394.28 871.20,395.31 869.46,396.34 867.73,397.38 865.98,398.41 864.24,399.45 862.50,400.49 860.75,401.53 859.00,402.57 857.25,403.62 855.50,404.66 853.74,405.71 851.99,406.75 850.23,407.80 848.47,408.85 846.71,409.90 844.95,410.96 843.18,412.01 841.42,413.07 839.65,414.12 837.89,415.18 836.12,416.24 834.35,417.30 832.57,418.36 830.80,419.42 829.03,420.49 827.25,421.55 825.48,422.62 823.70,423.68 821.92,424.75 820.14,425.82 818.36,426.89 816.58,427.96 814.80,429.03 813.02,430.10 811.23,431.17 809.45,432.25 807.66,433.32 805.88,434.40 804.09,435.48 802.31,436.55 800.52,437.63 798.73,438.71 796.95,439.79 795.16,440.87 793.37,441.95 791.58,443.03 789.79,444.12 788.01,445.20 786.22,446.28 784.43,447.37 782.64,448.45 780.85,449.54 779.06,450.62 777.27,451.71 775.48,452.80 773.70,453.88 771.91,454.97 770.12,456.06 768.33,457.15 766.55,458.24 764.76,459.32 762.97,460.41 761.19,461.50 759.40,462.59 757.62,463.68 755.83,464.77 754.05,465.87 752.27,466.96 750.48,468.05 748.70,469.14 746.92,470.23 745.14,471.32 743.36,472.41 741.59,473.50 739.81,474.60 738.03,475.69 736.26,476.78 734.49,477.87 732.71,478.96 730.94,480.05 729.17,481.15 727.41,482.24 725.64,483.33 723.87,484.42 722.11,485.51 720.35,486.60 718.58,487.69 716.83,488.78 715.07,489.87 713.31,490.96 712.18,491.66" type="driving"/>
    <lane id="-1_1" index="1" disallow="pedestrian tram rail_urban rail rail_electric rail_fast ship" speed="22.22" length="285.04" width="3.75" shape="954.56,341.72 954.11,341.98 952.53,342.91 950.95,343.84 949.37,344.77 947.79,345.70 946.20,346.64 944.60,347.57 943.00,348.51 941.40,349.46 939.79,350.40 938.18,351.35 936.57,352.30 934.95,353.25 933.33,354.21 931.70,355.17 930.07,356.13 928.44,357.09 926.80,358.05 925.16,359.02 923.52,359.99 921.87,360.96 920.22,361.94 918.56,362.91 916.91,363.89 915.24,364.87 913.58,365.85 911.91,366.84 910.24,367.82 908.57,368.81 906.89,369.80 905.21,370.80 903.53,371.79 901.84,372.79 900.15,373.79 898.46,374.79 896.76,375.79 895.06,376.80 893.36,377.80 891.66,378.81 889.95,379.82 888.25,380.84 886.53,381.85 884.82,382.87 883.10,383.88 881.38,384.90 879.66,385.92 877.94,386.95 876.21,387.97 874.48,389.00 872.75,390.03 871.02,391.06 869.29,392.09 867.55,393.12 865.81,394.16 864.07,395.19 862.32,396.23 860.58,397.27 858.83,398.31 857.08,399.35 855.33,400.39 853.58,401.44 851.82,402.49 850.07,403.53 848.31,404.58 846.55,405.63 844.79,406.68 843.03,407.74 841.26,408.79 839.50,409.85 837.73,410.90 835.96,411.96 834.19,413.02 832.42,414.08 830.65,415.14 828.87,416.21 827.10,417.27 825.32,418.33 823.55,419.40 821.77,420.47 819.99,421.53 818.21,422.60 816.43,423.67 814.65,424.74 812.87,425.82 811.08,426.89 809.30,427.96 807.51,429.04 805.73,430.11 803.94,431.19 802.16,432.27 800.37,433.34 798.58,434.42 796.79,435.50 795.01,436.58 793.22,437.66 791.43,438.74 789.64,439.83 787.85,440.91 786.06,441.99 784.27,443.08 782.48,444.16 780.69,445.25 778.90,446.33 777.12,447.42 775.33,448.50 773.54,449.59 771.75,450.68 769.96,451.77 768.17,452.85 766.38,453.94 764.59,455.03 762.81,456.12 761.02,457.21 759.23,458.30 757.45,459.39 755.66,460.48 753.88,461.57 752.09,462.67 750.31,463.76 748.53,464.85 746.74,465.94 744.96,467.03 743.18,468.12 741.40,469.22 739.62,470.31 737.85,471.40 736.07,472.49 734.29,473.59 732.52,474.68 730.75,475.77 728.98,476.86 727.20,477.96 725.44,479.05 723.67,480.14 721.90,481.23 720.14,482.32 718.37,483.41 716.61,484.51 714.85,485.60 713.09,486.69 711.33,487.78 710.21,488.48" type="driving"/>
    <lane id="-1_2" index="2" disallow="pedestrian tram rail_urban rail rail_electric rail_fast ship" speed="22.22" length="285.04" width="3.75" shape="952.66,338.49 952.21,338.75 950.63,339.68 949.05,340.60 947.47,341.53 945.89,342.47 944.29,343.40 942.70,344.34 941.10,345.28 939.50,346.22 937.89,347.17 936.28,348.12 934.67,349.07 933.05,350.02 931.42,350.98 929.80,351.94 928.17,352.90 926.53,353.86 924.90,354.82 923.26,355.79 921.61,356.76 919.96,357.73 918.31,358.71 916.66,359.68 915.00,360.66 913.34,361.64 911.67,362.62 910.01,363.61 908.33,364.59 906.66,365.58 904.98,366.58 903.30,367.57 901.62,368.56 899.93,369.56 898.24,370.56 896.55,371.56 894.85,372.56 893.15,373.57 891.45,374.58 889.75,375.59 888.04,376.60 886.33,377.61 884.62,378.62 882.91,379.64 881.19,380.66 879.47,381.68 877.75,382.70 876.02,383.72 874.30,384.75 872.57,385.77 870.84,386.80 869.10,387.83 867.37,388.86 865.63,389.90 863.89,390.93 862.15,391.97 860.41,393.01 858.66,394.05 856.91,395.09 855.16,396.13 853.41,397.17 851.66,398.22 849.90,399.26 848.15,400.31 846.39,401.36 844.63,402.41 842.87,403.46 841.10,404.52 839.34,405.57 837.57,406.63 835.80,407.69 834.03,408.74 832.26,409.80 830.49,410.86 828.72,411.93 826.95,412.99 825.17,414.05 823.39,415.12 821.62,416.18 819.84,417.25 818.06,418.32 816.28,419.39 814.50,420.46 812.72,421.53 810.93,422.60 809.15,423.68 807.36,424.75 805.58,425.82 803.79,426.90 802.01,427.98 800.22,429.05 798.43,430.13 796.64,431.21 794.86,432.29 793.07,433.37 791.28,434.45 789.49,435.53 787.70,436.62 785.91,437.70 784.12,438.78 782.33,439.87 780.54,440.95 778.75,442.04 776.96,443.12 775.17,444.21 773.38,445.30 771.59,446.39 769.80,447.47 768.01,448.56 766.22,449.65 764.43,450.74 762.64,451.83 760.85,452.92 759.07,454.01 757.28,455.10 755.49,456.19 753.71,457.28 751.92,458.38 750.14,459.47 748.35,460.56 746.57,461.65 744.78,462.74 743.00,463.84 741.22,464.93 739.44,466.02 737.66,467.11 735.88,468.21 734.11,469.30 732.33,470.39 730.55,471.49 728.78,472.58 727.01,473.67 725.24,474.76 723.47,475.86 721.70,476.95 719.93,478.04 718.16,479.13 716.40,480.23 714.64,481.32 712.87,482.41 711.11,483.50 709.35,484.59 708.23,485.29" type="driving"/>
  </edge>