<?xml version='1.0' encoding='UTF-8'?>
<!-- generated on 2022-09-05 14:55:50 by Eclipse SUMO netconvert Version 1.13.0
<configuration xmlns:xsi="http://www.w3.org/2001/XMLSchema-instance" xsi:noNamespaceSchemaLocation="http://sumo.dlr.de/xsd/netconvertConfiguration.xsd">

    <input>
        <opendrive-files value="map\classification\7\67511577\67511577.xodr"/>
    </input>

    <output>
        <output-file value="C:\Users\LinGe\AppData\Local\Temp\tmpylop2qhw\67511577.net.xml"/>
    </output>

    <processing>
        <geometry.max-grade.fix value="false"/>
    </processing>

    <tls_building>
        <tls.left-green.time value="0"/>
    </tls_building>

    <junctions>
        <rectangular-lane-cut value="true"/>
    </junctions>

    <report>
        <aggregate-warnings value="5"/>
    </report>

</configuration>
-->
<net xmlns:xsi="http://www.w3.org/2001/XMLSchema-instance" version="1.9" junctionCornerDetail="5" rectangularLaneCut="true" limitTurnSpeed="5.50" xsi:noNamespaceSchemaLocation="http://sumo.dlr.de/xsd/net_file.xsd">
  <location netOffset="140.52,193.60" convBoundary="0.00,0.00,1241.70,1394.85" origBoundary="-140.52,-193.60,1101.18,1201.26" projParameter="!"/>
  <type id="bidirectional" priority="1" speed="1.39" disallow="pedestrian tram rail_urban rail rail_electric rail_fast ship" width="3.65"/>
  <type id="border" priority="0" speed="1.39" disallow="all" discard="1" width="0.10"/>
  <type id="driving" priority="1" speed="13.89" disallow="pedestrian tram rail_urban rail rail_electric rail_fast ship" width="3.65"/>
  <type id="entry" priority="1" speed="22.22" disallow="pedestrian tram rail_urban rail rail_electric rail_fast ship" width="3.65"/>
  <type id="exit" priority="1" speed="22.22" disallow="pedestrian tram rail_urban rail rail_electric rail_fast ship" width="3.65"/>
  <type id="median" priority="0" speed="1.39" disallow="all" discard="1" width="0.10"/>
  <type id="mwyEntry" priority="1" speed="22.22" allow="private emergency authority army vip passenger hov taxi bus coach delivery truck trailer motorcycle evehicle custom1 custom2" width="3.65"/>
  <type id="mwyExit" priority="1" speed="22.22" allow="private emergency authority army vip passenger hov taxi bus coach delivery truck trailer motorcycle evehicle custom1 custom2" width="3.65"/>
  <type id="none" priority="0" speed="1.39" disallow="all" discard="1" width="1.00"/>
  <type id="offRamp" priority="1" speed="22.22" allow="private emergency authority army vip passenger hov taxi bus coach delivery truck trailer motorcycle evehicle custom1 custom2" width="3.65"/>
  <type id="onRamp" priority="1" speed="22.22" allow="private emergency authority army vip passenger hov taxi bus coach delivery truck trailer motorcycle evehicle custom1 custom2" width="3.65"/>
  <type id="parking" priority="1" speed="1.39" disallow="pedestrian tram rail_urban rail rail_electric rail_fast ship" width="2.50"/>
  <type id="rail" priority="3" speed="33.33" allow="rail_urban rail rail_electric rail_fast" width="3.65"/>
  <type id="restricted" priority="0" speed="13.89" disallow="all" width="3.65"/>
  <type id="roadWorks" priority="0" speed="1.39" allow="authority" width="3.65"/>
  <type id="shoulder" priority="0" speed="1.39" disallow="all" discard="1" width="1.00"/>
  <type id="special1" priority="1" speed="22.22" allow="custom1" discard="1" width="3.65"/>
  <type id="special2" priority="1" speed="22.22" allow="custom2" discard="1" width="3.65"/>
  <type id="special3" priority="1" speed="22.22" allow="custom1 custom2" discard="1" width="3.65"/>
  <type id="stop" priority="1" speed="13.89" disallow="pedestrian tram rail_urban rail rail_electric rail_fast ship" width="3.65"/>
  <type id="tram" priority="2" speed="13.89" allow="tram" width="3.65"/>
  <edge id=":0_0" function="internal">
    <lane id=":0_0_0" index="0" disallow="pedestrian tram rail_urban rail rail_electric rail_fast ship" speed="22.22" length="88.68" width="3.75" shape="1063.19,411.25 1046.72,421.63 1022.78,437.30 1000.51,452.10 989.07,459.92"/>
  </edge>
  <edge id=":0_1" function="internal">
    <lane id=":0_1_0" index="0" disallow="pedestrian tram rail_urban rail rail_electric rail_fast ship" speed="22.22" length="88.79" width="3.75" shape="1063.19,411.25 986.78,456.42"/>
    <lane id=":0_1_1" index="1" disallow="pedestrian tram rail_urban rail rail_electric rail_fast ship" speed="22.22" length="88.79" width="3.75" shape="1061.29,408.02 984.86,453.20"/>
    <lane id=":0_1_2" index="2" disallow="pedestrian tram rail_urban rail rail_electric rail_fast ship" speed="22.22" length="88.79" width="3.75" shape="1059.39,404.78 982.94,449.98"/>
  </edge>
  <edge id=":1_0" function="internal">
    <lane id=":1_0_0" index="0" disallow="pedestrian tram rail_urban rail rail_electric rail_fast ship" speed="12.41" length="15.90" width="3.75" shape="382.84,861.45 385.81,858.34,0.00 387.94,854.99,0.00 389.21,851.41,0.00 389.63,847.60,0.00"/>
  </edge>
  <edge id=":1_1" function="internal">
    <lane id=":1_1_0" index="0" disallow="pedestrian tram rail_urban rail rail_electric rail_fast ship" speed="22.22" length="16.81" width="3.75" shape="382.84,861.45 395.47,850.34"/>
    <lane id=":1_1_1" index="1" disallow="pedestrian tram rail_urban rail rail_electric rail_fast ship" speed="22.22" length="16.81" width="3.75" shape="385.32,864.26 397.95,853.16"/>
    <lane id=":1_1_2" index="2" disallow="pedestrian tram rail_urban rail rail_electric rail_fast ship" speed="22.22" length="16.81" width="3.75" shape="387.80,867.08 400.42,855.98"/>
  </edge>
  <edge id=":13.12_0" function="internal">
    <lane id=":13.12_0_0" index="0" disallow="pedestrian tram rail_urban rail rail_electric rail_fast ship" speed="22.22" length="0.30" width="3.75" shape="521.37,662.87,20.00 521.18,662.63,20.00"/>
    <lane id=":13.12_0_1" index="1" disallow="pedestrian tram rail_urban rail rail_electric rail_fast ship" speed="22.22" length="0.30" width="3.75" shape="524.29,660.51,20.00 524.10,660.28,20.00"/>
    <lane id=":13.12_0_2" index="2" disallow="pedestrian tram rail_urban rail rail_electric rail_fast ship" speed="22.22" length="0.30" width="3.75" shape="527.21,658.15,20.00 527.02,657.92,20.00"/>
  </edge>
  <edge id=":16.15_0" function="internal">
    <lane id=":16.15_0_0" index="0" disallow="pedestrian tram rail_urban rail rail_electric rail_fast ship" speed="19.44" length="0.10" width="3.75" shape="605.75,1007.88,7.63 605.75,1007.88,7.63"/>
  </edge>
  <edge id=":18.17_0" function="internal">
    <lane id=":18.17_0_0" index="0" disallow="pedestrian tram rail_urban rail rail_electric rail_fast ship" speed="22.22" length="0.30" width="3.75" shape="863.57,744.31,8.00 863.59,744.61,8.01"/>
  </edge>
  <edge id=":2_0" function="internal">
    <lane id=":2_0_0" index="0" disallow="pedestrian tram rail_urban rail rail_electric rail_fast ship" speed="20.83" length="56.22" width="3.75" shape="1117.44,1330.06,20.00 1107.32,1319.82,20.00 1094.63,1307.84,20.00 1083.11,1297.35,20.00 1076.51,1291.54,20.00"/>
  </edge>
  <edge id=":2_1" function="internal">
    <lane id=":2_1_0" index="0" disallow="pedestrian tram rail_urban rail rail_electric rail_fast ship" speed="22.22" length="56.34" width="3.75" shape="1117.44,1330.06,20.00 1079.47,1288.44,20.00"/>
    <lane id=":2_1_1" index="1" disallow="pedestrian tram rail_urban rail rail_electric rail_fast ship" speed="22.22" length="56.34" width="3.75" shape="1120.21,1327.53,20.00 1082.24,1285.92,20.00"/>
    <lane id=":2_1_2" index="2" disallow="pedestrian tram rail_urban rail rail_electric rail_fast ship" speed="22.22" length="56.34" width="3.75" shape="1122.98,1325.01,20.00 1085.01,1283.39,20.00"/>
  </edge>
  <edge id=":2.1_0" function="internal">
    <lane id=":2.1_0_0" index="0" disallow="pedestrian tram rail_urban rail rail_electric rail_fast ship" speed="22.22" length="0.30" width="3.75" shape="651.20,669.42 650.96,669.59"/>
    <lane id=":2.1_0_1" index="1" disallow="pedestrian tram rail_urban rail rail_electric rail_fast ship" speed="22.22" length="0.30" width="3.75" shape="648.99,666.39 648.75,666.56"/>
    <lane id=":2.1_0_2" index="2" disallow="pedestrian tram rail_urban rail rail_electric rail_fast ship" speed="22.22" length="0.30" width="3.75" shape="646.79,663.35 646.54,663.53"/>
  </edge>
  <edge id=":21.20_0" function="internal">
    <lane id=":21.20_0_0" index="0" disallow="pedestrian tram rail_urban rail rail_electric rail_fast ship" speed="16.67" length="0.30" width="3.75" shape="332.17,514.07,6.44 332.25,513.78,6.43"/>
  </edge>
  <edge id=":23.22_0" function="internal">
    <lane id=":23.22_0_0" index="0" disallow="pedestrian tram rail_urban rail rail_electric rail_fast ship" speed="8.33" length="0.30" width="3.75" shape="83.45,2.36,6.01 83.74,2.43,6.01"/>
  </edge>
  <edge id=":3_0" function="internal">
    <lane id=":3_0_0" index="0" disallow="pedestrian tram rail_urban rail rail_electric rail_fast ship" speed="20.83" length="60.61" width="3.75" shape="312.21,960.78,0.00 304.50,966.28,0.00 290.84,976.55,0.00 275.89,988.22,0.00 264.31,997.89"/>
  </edge>
  <edge id=":3_1" function="internal">
    <lane id=":3_1_0" index="0" disallow="pedestrian tram rail_urban rail rail_electric rail_fast ship" speed="22.22" length="60.18" width="3.75" shape="309.01,957.61 264.31,997.89"/>
    <lane id=":3_1_1" index="1" disallow="pedestrian tram rail_urban rail rail_electric rail_fast ship" speed="22.22" length="60.18" width="3.75" shape="306.51,954.82 261.80,995.10"/>
    <lane id=":3_1_2" index="2" disallow="pedestrian tram rail_urban rail rail_electric rail_fast ship" speed="22.22" length="60.18" width="3.75" shape="304.00,952.03 259.28,992.32"/>
  </edge>
  <edge id=":4_0" function="internal">
    <lane id=":4_0_0" index="0" disallow="pedestrian tram rail_urban rail rail_electric rail_fast ship" speed="19.44" length="3.00" width="3.75" shape="838.16,1131.28,13.44 835.58,1129.75,13.36"/>
  </edge>
  <edge id=":4_1" function="internal">
    <lane id=":4_1_0" index="0" disallow="pedestrian tram rail_urban rail rail_electric rail_fast ship" speed="18.06" length="3.00" width="3.75" shape="838.16,1131.28,13.44 835.58,1129.75,13.40"/>
  </edge>
  <edge id=":5_0" function="internal">
    <lane id=":5_0_0" index="0" disallow="pedestrian tram rail_urban rail rail_electric rail_fast ship" speed="22.22" length="92.54" width="3.75" shape="1060.72,1228.01,20.00 1069.82,1239.24,20.00 1087.68,1260.88,20.00 1106.87,1283.86,20.00 1119.97,1299.08,20.00"/>
  </edge>
  <edge id=":5_1" function="internal">
    <lane id=":5_1_0" index="0" disallow="pedestrian tram rail_urban rail rail_electric rail_fast ship" speed="22.22" length="92.29" width="3.75" shape="1057.77,1230.90,20.00 1119.97,1299.08,20.00"/>
    <lane id=":5_1_1" index="1" disallow="pedestrian tram rail_urban rail rail_electric rail_fast ship" speed="22.22" length="92.29" width="3.75" shape="1055.00,1233.43,20.00 1117.20,1301.61,20.00"/>
    <lane id=":5_1_2" index="2" disallow="pedestrian tram rail_urban rail rail_electric rail_fast ship" speed="22.22" length="92.29" width="3.75" shape="1052.22,1235.96,20.00 1114.42,1304.14,20.00"/>
  </edge>
  <edge id=":6_0" function="internal">
    <lane id=":6_0_0" index="0" disallow="pedestrian tram rail_urban rail rail_electric rail_fast ship" speed="19.44" length="26.92" width="3.75" shape="990.48,421.03,0.01 994.94,420.50,0.01 1000.73,419.27,0.01 1007.75,416.85,0.00 1015.87,412.75"/>
  </edge>
  <edge id=":6_1" function="internal">
    <lane id=":6_1_0" index="0" disallow="pedestrian tram rail_urban rail rail_electric rail_fast ship" speed="22.22" length="25.71" width="3.75" shape="993.74,425.85 1015.87,412.75"/>
    <lane id=":6_1_1" index="1" disallow="pedestrian tram rail_urban rail rail_electric rail_fast ship" speed="22.22" length="25.71" width="3.75" shape="995.65,429.08 1017.78,415.98"/>
    <lane id=":6_1_2" index="2" disallow="pedestrian tram rail_urban rail rail_electric rail_fast ship" speed="22.22" length="25.71" width="3.75" shape="997.57,432.30 1019.68,419.21"/>
  </edge>
  <edge id=":6.5_0" function="internal">
    <lane id=":6.5_0_0" index="0" disallow="pedestrian tram rail_urban rail rail_electric rail_fast ship" speed="22.22" length="0.30" width="3.75" shape="637.57,651.20 637.82,651.02"/>
    <lane id=":6.5_0_1" index="1" disallow="pedestrian tram rail_urban rail rail_electric rail_fast ship" speed="22.22" length="0.30" width="3.75" shape="639.78,654.23 640.02,654.05"/>
    <lane id=":6.5_0_2" index="2" disallow="pedestrian tram rail_urban rail rail_electric rail_fast ship" speed="22.22" length="0.30" width="3.75" shape="641.99,657.26 642.23,657.09"/>
  </edge>
  <edge id=":7_0" function="internal">
    <lane id=":7_0_0" index="0" disallow="pedestrian tram rail_urban rail rail_electric rail_fast ship" speed="22.22" length="79.30" width="3.75" shape="897.57,910.47,13.84 924.26,985.14,13.87"/>
  </edge>
  <edge id=":7_1" function="internal">
    <lane id=":7_1_0" index="0" disallow="pedestrian tram rail_urban rail rail_electric rail_fast ship" speed="15.28" length="79.07" width="3.75" shape="894.00,912.09,13.80 924.26,985.14,13.87"/>
  </edge>
  <edge id=":9.8_0" function="internal">
    <lane id=":9.8_0_0" index="0" disallow="pedestrian tram rail_urban rail rail_electric rail_fast ship" speed="22.22" length="0.30" width="3.75" shape="538.89,648.34,20.00 539.07,648.57,20.00"/>
    <lane id=":9.8_0_1" index="1" disallow="pedestrian tram rail_urban rail rail_electric rail_fast ship" speed="22.22" length="0.30" width="3.75" shape="535.97,650.70,20.00 536.16,650.93,20.00"/>
    <lane id=":9.8_0_2" index="2" disallow="pedestrian tram rail_urban rail rail_electric rail_fast ship" speed="22.22" length="0.30" width="3.75" shape="533.05,653.05,20.00 533.24,653.29,20.00"/>
  </edge>
  <edge id="-0" from="0.begin" to="0" priority="1" type="driving" shape="1241.70,295.22 1240.80,295.77 1239.88,296.33 1238.94,296.91 1237.98,297.49 1237.01,298.09 1236.01,298.69 1235.00,299.31 1233.97,299.93 1232.92,300.57 1231.85,301.21 1230.76,301.87 1229.66,302.53 1228.53,303.21 1227.39,303.89 1226.24,304.59 1225.06,305.29 1223.87,306.01 1222.66,306.73 1221.43,307.46 1220.18,308.20 1218.92,308.96 1217.65,309.72 1216.35,310.49 1215.04,311.27 1213.71,312.06 1212.37,312.85 1211.01,313.66 1209.63,314.48 1208.24,315.30 1206.83,316.13 1205.40,316.98 1203.96,317.83 1202.51,318.69 1201.03,319.56 1199.55,320.43 1198.05,321.32 1196.53,322.21 1195.00,323.12 1193.45,324.03 1191.89,324.95 1190.31,325.87 1188.72,326.81 1187.11,327.75 1185.49,328.71 1183.86,329.67 1182.21,330.63 1180.55,331.61 1178.87,332.59 1177.18,333.59 1175.48,334.58 1173.76,335.59 1172.03,336.61 1170.29,337.63 1168.53,338.66 1166.76,339.69 1164.98,340.74 1163.19,341.79 1161.38,342.85 1159.56,343.92 1157.72,344.99 1155.88,346.07 1154.02,347.16 1152.15,348.25 1150.27,349.35 1148.37,350.46 1146.47,351.58 1144.55,352.70 1142.62,353.83 1140.68,354.97 1138.73,356.11 1136.77,357.26 1134.79,358.41 1132.81,359.57 1130.81,360.74 1128.80,361.92 1126.79,363.10 1124.76,364.28 1122.72,365.48 1120.67,366.67 1118.61,367.88 1116.54,369.09 1114.47,370.31 1112.38,371.53 1110.28,372.76 1108.17,373.99 1106.05,375.23 1103.93,376.48 1101.79,377.73 1099.64,378.99 1097.49,380.25 1095.33,381.52 1093.15,382.79 1090.97,384.07 1088.78,385.35 1086.59,386.64 1084.38,387.94 1082.17,389.23 1079.94,390.54 1077.71,391.85 1075.47,393.16 1073.23,394.48 1070.97,395.80 1068.71,397.13 1066.44,398.46 1064.17,399.80 1061.88,401.14 1059.59,402.49 1057.30,403.84 1054.99,405.20">
    <lane id="-0_0" index="0" disallow="pedestrian tram rail_urban rail rail_electric rail_fast ship" speed="22.22" length="212.80" width="3.75" shape="1246.61,303.20 1245.70,303.76 1244.78,304.33 1243.83,304.91 1242.86,305.49 1241.88,306.09 1240.88,306.70 1239.86,307.32 1238.82,307.95 1237.77,308.59 1236.69,309.24 1235.60,309.90 1234.49,310.56 1233.36,311.24 1232.22,311.93 1231.06,312.63 1229.88,313.33 1228.68,314.05 1227.47,314.78 1226.23,315.51 1224.99,316.26 1223.72,317.01 1222.44,317.77 1221.14,318.55 1219.83,319.33 1218.50,320.12 1217.15,320.92 1215.79,321.72 1214.41,322.54 1213.01,323.37 1211.60,324.20 1210.17,325.05 1208.73,325.90 1207.27,326.76 1205.80,327.63 1204.31,328.51 1202.81,329.40 1201.29,330.29 1199.75,331.19 1198.20,332.11 1196.64,333.03 1195.06,333.95 1193.47,334.89 1191.86,335.84 1190.24,336.79 1188.61,337.75 1186.96,338.72 1185.30,339.69 1183.62,340.68 1181.93,341.67 1180.22,342.67 1178.51,343.68 1176.78,344.69 1175.03,345.72 1173.27,346.75 1171.50,347.78 1169.72,348.83 1167.92,349.88 1166.12,350.94 1164.29,352.01 1162.46,353.08 1160.61,354.16 1158.76,355.25 1156.89,356.34 1155.00,357.45 1153.11,358.55 1151.20,359.67 1149.29,360.79 1147.36,361.92 1145.42,363.06 1143.46,364.20 1141.50,365.35 1139.53,366.50 1137.54,367.66 1135.55,368.83 1133.54,370.01 1131.52,371.19 1129.49,372.37 1127.46,373.57 1125.41,374.77 1123.35,375.97 1121.28,377.18 1119.20,378.40 1117.11,379.62 1115.01,380.85 1112.91,382.08 1110.79,383.32 1108.66,384.57 1106.53,385.82 1104.38,387.08 1102.23,388.34 1100.07,389.61 1097.89,390.88 1095.71,392.16 1093.53,393.44 1091.33,394.73 1089.12,396.02 1086.91,397.32 1084.69,398.62 1082.46,399.93 1080.22,401.25 1077.97,402.56 1075.72,403.89 1073.46,405.22 1071.19,406.55 1068.92,407.88 1066.63,409.23 1064.34,410.57 1063.19,411.25" type="driving"/>
    <lane id="-0_1" index="1" disallow="pedestrian tram rail_urban rail rail_electric rail_fast ship" speed="22.22" length="212.80" width="3.75" shape="1244.64,300.01 1243.74,300.56 1242.82,301.13 1241.87,301.71 1240.91,302.29 1239.93,302.89 1238.93,303.50 1237.92,304.12 1236.88,304.74 1235.83,305.38 1234.75,306.03 1233.66,306.68 1232.56,307.35 1231.43,308.03 1230.29,308.72 1229.13,309.41 1227.95,310.12 1226.75,310.83 1225.54,311.56 1224.31,312.29 1223.07,313.04 1221.80,313.79 1220.52,314.55 1219.23,315.32 1217.91,316.10 1216.58,316.89 1215.24,317.69 1213.87,318.50 1212.49,319.32 1211.10,320.14 1209.69,320.98 1208.26,321.82 1206.82,322.67 1205.37,323.53 1203.89,324.40 1202.40,325.28 1200.90,326.17 1199.38,327.06 1197.85,327.96 1196.30,328.87 1194.74,329.79 1193.16,330.72 1191.57,331.66 1189.96,332.60 1188.34,333.56 1186.71,334.52 1185.06,335.48 1183.40,336.46 1181.72,337.44 1180.03,338.44 1178.33,339.44 1176.61,340.44 1174.88,341.46 1173.13,342.48 1171.38,343.51 1169.61,344.55 1167.82,345.59 1166.03,346.64 1164.22,347.70 1162.40,348.77 1160.57,349.84 1158.72,350.93 1156.86,352.01 1154.99,353.11 1153.11,354.21 1151.21,355.32 1149.31,356.43 1147.39,357.56 1145.46,358.68 1143.52,359.82 1141.57,360.96 1139.61,362.11 1137.63,363.27 1135.65,364.43 1133.65,365.60 1131.64,366.77 1129.63,367.95 1127.60,369.14 1125.56,370.33 1123.51,371.53 1121.45,372.73 1119.39,373.95 1117.31,375.16 1115.22,376.38 1113.12,377.61 1111.01,378.85 1108.89,380.09 1106.77,381.33 1104.63,382.58 1102.49,383.84 1100.33,385.10 1098.17,386.37 1096.00,387.64 1093.82,388.92 1091.63,390.21 1089.43,391.49 1087.23,392.79 1085.01,394.09 1082.79,395.39 1080.56,396.70 1078.32,398.01 1076.08,399.33 1073.82,400.65 1071.56,401.98 1069.29,403.31 1067.02,404.65 1064.73,405.99 1062.44,407.34 1061.29,408.02" type="driving"/>
    <lane id="-0_2" index="2" disallow="pedestrian tram rail_urban rail rail_electric rail_fast ship" speed="22.22" length="212.80" width="3.75" shape="1242.68,296.81 1241.78,297.37 1240.86,297.93 1239.92,298.51 1238.96,299.09 1237.98,299.69 1236.99,300.29 1235.97,300.91 1234.94,301.53 1233.89,302.17 1232.82,302.82 1231.73,303.47 1230.62,304.14 1229.50,304.81 1228.36,305.50 1227.20,306.20 1226.02,306.90 1224.83,307.61 1223.62,308.34 1222.39,309.07 1221.15,309.81 1219.88,310.57 1218.60,311.33 1217.31,312.10 1216.00,312.88 1214.67,313.67 1213.32,314.47 1211.96,315.27 1210.58,316.09 1209.19,316.91 1207.78,317.75 1206.36,318.59 1204.92,319.44 1203.46,320.30 1201.99,321.17 1200.50,322.05 1199.00,322.93 1197.48,323.83 1195.95,324.73 1194.40,325.64 1192.84,326.56 1191.26,327.49 1189.67,328.43 1188.06,329.37 1186.44,330.32 1184.81,331.28 1183.16,332.25 1181.50,333.23 1179.82,334.21 1178.13,335.20 1176.43,336.20 1174.71,337.21 1172.98,338.22 1171.24,339.25 1169.48,340.28 1167.71,341.31 1165.93,342.36 1164.13,343.41 1162.33,344.47 1160.50,345.53 1158.67,346.61 1156.82,347.69 1154.97,348.78 1153.10,349.87 1151.21,350.97 1149.32,352.08 1147.41,353.20 1145.50,354.32 1143.57,355.45 1141.63,356.58 1139.68,357.73 1137.71,358.87 1135.74,360.03 1133.75,361.19 1131.76,362.36 1129.75,363.53 1127.73,364.71 1125.71,365.90 1123.67,367.09 1121.62,368.29 1119.56,369.50 1117.49,370.71 1115.41,371.93 1113.32,373.15 1111.23,374.38 1109.12,375.61 1107.00,376.85 1104.87,378.10 1102.74,379.35 1100.59,380.61 1098.44,381.87 1096.27,383.14 1094.10,384.41 1091.92,385.69 1089.73,386.97 1087.53,388.26 1085.33,389.55 1083.11,390.85 1080.89,392.16 1078.66,393.46 1076.42,394.78 1074.18,396.10 1071.92,397.42 1069.66,398.75 1067.39,400.08 1065.12,401.42 1062.83,402.76 1060.54,404.11 1059.39,404.78" type="driving"/>
  </edge>
  <edge id="-1" from="0" to="2.1" priority="1" type="driving" shape="1054.99,405.20 1053.29,406.20 1051.59,407.20 1049.89,408.20 1048.18,409.21 1046.47,410.21 1044.75,411.22 1043.03,412.24 1041.31,413.25 1039.59,414.27 1037.86,415.29 1036.13,416.31 1034.39,417.33 1032.65,418.36 1030.91,419.38 1029.17,420.41 1027.42,421.44 1025.67,422.48 1023.92,423.51 1022.16,424.55 1020.41,425.59 1018.65,426.63 1016.88,427.67 1015.12,428.72 1013.35,429.76 1011.58,430.81 1009.80,431.86 1008.02,432.91 1006.25,433.97 1004.46,435.02 1002.68,436.08 1000.90,437.14 999.11,438.20 997.32,439.26 995.53,440.32 993.73,441.39 991.93,442.45 990.14,443.52 988.34,444.59 986.53,445.66 984.73,446.74 982.92,447.81 981.12,448.88 979.31,449.96 977.49,451.04 975.68,452.12 973.87,453.20 972.05,454.28 970.23,455.37 968.42,456.45 966.59,457.54 964.77,458.62 962.95,459.71 961.13,460.80 959.30,461.89 957.47,462.98 955.65,464.08 953.82,465.17 951.99,466.26 950.16,467.36 948.32,468.46 946.49,469.56 944.66,470.65 942.82,471.75 940.99,472.86 939.15,473.96 937.32,475.06 935.48,476.16 933.64,477.27 931.80,478.37 929.96,479.48 928.12,480.58 926.28,481.69 924.44,482.80 922.60,483.91 920.76,485.02 918.92,486.13 917.08,487.24 915.24,488.35 913.40,489.46 911.56,490.58 909.71,491.69 907.87,492.80 906.03,493.92 904.19,495.03 902.35,496.15 900.51,497.26 898.67,498.38 896.83,499.49 894.99,500.61 893.15,501.73 891.31,502.84 889.47,503.96 887.63,505.08 885.80,506.20 883.96,507.31 882.12,508.43 880.29,509.55 878.46,510.67 876.62,511.79 874.79,512.91 872.96,514.03 871.13,515.15 869.30,516.27 867.47,517.38 865.64,518.50 863.81,519.62 861.99,520.74 860.16,521.86 858.34,522.98 856.52,524.10 854.70,525.22 852.88,526.34 851.06,527.45 849.25,528.57 847.43,529.69 845.62,530.81 843.81,531.92 842.00,533.04 840.19,534.16 838.39,535.28 836.58,536.39 834.78,537.51 832.98,538.62 831.18,539.74 829.39,540.85 827.59,541.96 825.80,543.08 824.01,544.19 822.22,545.30 820.44,546.42 818.65,547.53 816.87,548.64 815.10,549.75 813.32,550.86 811.55,551.96 809.77,553.07 808.01,554.18 806.24,555.29 804.48,556.39 802.72,557.50 800.96,558.60 799.20,559.70 797.45,560.81 795.70,561.91 793.96,563.01 792.21,564.11 790.47,565.21 788.73,566.30 787.00,567.40 785.27,568.50 783.54,569.59 781.82,570.68 780.09,571.78 778.38,572.87 776.66,573.96 774.95,575.05 773.24,576.14 771.54,577.22 769.84,578.31 768.14,579.39 766.45,580.48 764.76,581.56 763.07,582.64 761.39,583.72 759.71,584.79 758.03,585.87 756.36,586.95 754.70,588.02 753.03,589.09 751.38,590.16 749.72,591.23 748.07,592.30 746.42,593.36 744.78,594.43 743.14,595.49 741.51,596.55 739.88,597.61 738.26,598.67 736.64,599.73 735.02,600.78 733.41,601.84 731.80,602.89 730.20,603.94 728.60,604.98 727.01,606.03 725.42,607.07 723.84,608.12 722.26,609.16 720.69,610.19 719.12,611.23 717.56,612.27 716.00,613.30 714.45,614.33 712.90,615.36 711.36,616.38 709.82,617.41 708.29,618.43 706.76,619.45 705.24,620.47 703.73,621.49 702.22,622.50 700.71,623.51 699.21,624.52 697.72,625.53 696.23,626.53 694.75,627.54 693.27,628.54 691.80,629.53 690.34,630.53 688.88,631.52 687.42,632.51 685.98,633.50 684.54,634.49 683.10,635.47 681.67,636.45 680.25,637.43 678.83,638.41 677.42,639.38 676.02,640.35 674.62,641.32 673.23,642.29 671.84,643.25 670.47,644.21 669.09,645.17 667.73,646.12 666.37,647.08 665.02,648.03 663.67,648.97 662.33,649.92 661.00,650.86 659.68,651.80 658.36,652.73 657.05,653.67 655.74,654.60 654.44,655.52 653.15,656.45 651.87,657.37 650.60,658.29 649.33,659.20 648.07,660.11 646.81,661.02 645.56,661.93">
    <lane id="-1_0" index="0" disallow="pedestrian tram rail_urban rail rail_electric rail_fast ship" speed="22.22" length="397.93" width="3.75" shape="986.78,456.42 985.91,456.94 984.10,458.02 982.29,459.09 980.48,460.17 978.67,461.25 976.85,462.33 975.03,463.42 973.22,464.50 971.40,465.59 969.58,466.67 967.76,467.76 965.93,468.85 964.11,469.94 962.28,471.03 960.46,472.12 958.63,473.21 956.80,474.31 954.97,475.40 953.14,476.50 951.31,477.60 949.48,478.70 947.64,479.79 945.81,480.89 943.98,482.00 942.14,483.10 940.31,484.20 938.47,485.30 936.63,486.41 934.79,487.51 932.96,488.62 931.12,489.72 929.28,490.83 927.44,491.94 925.60,493.05 923.76,494.16 921.92,495.27 920.08,496.38 918.24,497.49 916.40,498.60 914.56,499.71 912.73,500.82 910.89,501.94 909.05,503.05 907.21,504.16 905.37,505.28 903.53,506.39 901.69,507.51 899.85,508.62 898.02,509.74 896.18,510.85 894.34,511.97 892.51,513.09 890.67,514.20 888.84,515.32 887.00,516.44 885.17,517.56 883.34,518.67 881.51,519.79 879.68,520.91 877.85,522.03 876.02,523.14 874.19,524.26 872.36,525.38 870.54,526.50 868.71,527.62 866.89,528.73 865.07,529.85 863.25,530.97 861.43,532.09 859.61,533.20 857.79,534.32 855.98,535.44 854.16,536.55 852.35,537.67 850.54,538.79 848.73,539.90 846.93,541.02 845.12,542.13 843.32,543.25 841.52,544.36 839.72,545.48 837.92,546.59 836.12,547.70 834.33,548.82 832.54,549.93 830.75,551.04 828.96,552.15 827.18,553.26 825.39,554.37 823.61,555.48 821.84,556.59 820.06,557.70 818.29,558.81 816.52,559.91 814.75,561.02 812.98,562.13 811.22,563.23 809.46,564.33 807.70,565.44 805.95,566.54 804.19,567.64 802.44,568.74 800.70,569.84 798.95,570.94 797.21,572.04 795.48,573.13 793.74,574.23 792.01,575.32 790.28,576.42 788.56,577.51 786.84,578.60 785.12,579.69 783.40,580.78 781.69,581.87 779.98,582.96 778.28,584.04 776.58,585.13 774.88,586.21 773.19,587.29 771.50,588.37 769.81,589.45 768.13,590.53 766.45,591.61 764.78,592.68 763.10,593.76 761.44,594.83 759.77,595.90 758.12,596.97 756.46,598.04 754.81,599.10 753.16,600.17 751.52,601.23 749.88,602.29 748.25,603.35 746.62,604.41 745.00,605.47 743.38,606.53 741.76,607.58 740.15,608.63 738.54,609.68 736.94,610.73 735.34,611.78 733.75,612.82 732.16,613.86 730.58,614.90 729.00,615.94 727.43,616.98 725.86,618.02 724.30,619.05 722.74,620.08 721.18,621.11 719.64,622.14 718.09,623.16 716.56,624.19 715.02,625.21 713.50,626.23 711.98,627.24 710.46,628.26 708.95,629.27 707.44,630.28 705.94,631.29 704.45,632.30 702.96,633.30 701.48,634.30 700.00,635.30 698.53,636.30 697.07,637.29 695.61,638.28 694.16,639.27 692.71,640.26 691.27,641.24 689.83,642.22 688.40,643.20 686.98,644.18 685.56,645.15 684.15,646.13 682.75,647.10 681.35,648.06 679.96,649.03 678.58,649.99 677.20,650.95 675.83,651.90 674.46,652.85 673.11,653.80 671.75,654.75 670.41,655.70 669.07,656.64 667.74,657.58 666.42,658.51 665.10,659.45 663.79,660.38 662.48,661.30 661.19,662.23 659.90,663.15 658.62,664.07 657.34,664.98 656.07,665.89 654.81,666.80 653.56,667.71 652.32,668.61 651.20,669.42" type="driving"/>