<?xml version='1.0' encoding='UTF-8'?>
<!-- generated on 2022-11-12 23:51:05 by Eclipse SUMO netconvert Version 1.13.0
<configuration xmlns:xsi="http://www.w3.org/2001/XMLSchema-instance" xsi:noNamespaceSchemaLocation="http://sumo.dlr.de/xsd/netconvertConfiguration.xsd">

    <input>
        <opendrive-files value="map_v4\15\6245\6245.xodr"/>
    </input>

    <output>
        <output-file value="C:\Users\LinGe\AppData\Local\Temp\tmp9ys15nqc\6245.net.xml"/>
    </output>

    <processing>
        <geometry.max-grade.fix value="false"/>
    </processing>

    <tls_building>
        <tls.left-green.time value="0"/>
    </tls_building>

    <junctions>
        <rectangular-lane-cut value="true"/>
    </junctions>

    <report>
        <aggregate-warnings value="5"/>
    </report>

</configuration>
-->
<net xmlns:xsi="http://www.w3.org/2001/XMLSchema-instance" version="1.9" junctionCornerDetail="5" rectangularLaneCut="true" limitTurnSpeed="5.50" xsi:noNamespaceSchemaLocation="http://sumo.dlr.de/xsd/net_file.xsd">
  <location netOffset="201.55,201.27" convBoundary="0.00,0.00,1102.63,1179.65" origBoundary="-201.55,-201.27,901.09,978.39" projParameter="!"/>
  <type id="bidirectional" priority="1" speed="1.39" disallow="pedestrian tram rail_urban rail rail_electric rail_fast ship" width="3.65"/>
  <type id="border" priority="0" speed="1.39" disallow="all" discard="1" width="0.10"/>
  <type id="driving" priority="1" speed="13.89" disallow="pedestrian tram rail_urban rail rail_electric rail_fast ship" width="3.65"/>
  <type id="entry" priority="1" speed="22.22" disallow="pedestrian tram rail_urban rail rail_electric rail_fast ship" width="3.65"/>
  <type id="exit" priority="1" speed="22.22" disallow="pedestrian tram rail_urban rail rail_electric rail_fast ship" width="3.65"/>
  <type id="median" priority="0" speed="1.39" disallow="all" discard="1" width="0.10"/>
  <type id="mwyEntry" priority="1" speed="22.22" allow="private emergency authority army vip passenger hov taxi bus coach delivery truck trailer motorcycle evehicle custom1 custom2" width="3.65"/>
  <type id="mwyExit" priority="1" speed="22.22" allow="private emergency authority army vip passenger hov taxi bus coach delivery truck trailer motorcycle evehicle custom1 custom2" width="3.65"/>
  <type id="none" priority="0" speed="1.39" disallow="all" discard="1" width="1.00"/>
  <type id="offRamp" priority="1" speed="22.22" allow="private emergency authority army vip passenger hov taxi bus coach delivery truck trailer motorcycle evehicle custom1 custom2" width="3.65"/>
  <type id="onRamp" priority="1" speed="22.22" allow="private emergency authority army vip passenger hov taxi bus coach delivery truck trailer motorcycle evehicle custom1 custom2" width="3.65"/>
  <type id="parking" priority="1" speed="1.39" disallow="pedestrian tram rail_urban rail rail_electric rail_fast ship" width="2.50"/>
  <type id="rail" priority="3" speed="33.33" allow="rail_urban rail rail_electric rail_fast" width="3.65"/>
  <type id="restricted" priority="0" speed="13.89" disallow="all" width="3.65"/>
  <type id="roadWorks" priority="0" speed="1.39" allow="authority" width="3.65"/>
  <type id="shoulder" priority="0" speed="1.39" disallow="all" discard="1" width="1.00"/>
  <type id="special1" priority="1" speed="22.22" allow="custom1" discard="1" width="3.65"/>
  <type id="special2" priority="1" speed="22.22" allow="custom2" discard="1" width="3.65"/>
  <type id="special3" priority="1" speed="22.22" allow="custom1 custom2" discard="1" width="3.65"/>
  <type id="stop" priority="1" speed="13.89" disallow="pedestrian tram rail_urban rail rail_electric rail_fast ship" width="3.65"/>
  <type id="tram" priority="2" speed="13.89" allow="tram" width="3.65"/>
  <edge id=":0_0" function="internal">
    <lane id=":0_0_0" index="0" disallow="pedestrian tram rail_urban rail rail_electric rail_fast ship" speed="18.06" length="36.49" width="3.75" shape="933.91,671.05 925.69,678.81,0.02 918.45,686.64,0.05 912.80,693.39,0.07 909.36,697.95,0.08"/>
  </edge>
  <edge id=":0_1" function="internal">
    <lane id=":0_1_0" index="0" disallow="pedestrian tram rail_urban rail rail_electric rail_fast ship" speed="22.22" length="36.85" width="3.75" shape="933.91,671.05 905.69,694.87"/>
    <lane id=":0_1_1" index="1" disallow="pedestrian tram rail_urban rail rail_electric rail_fast ship" speed="22.22" length="36.85" width="3.75" shape="931.46,668.21 903.30,691.98"/>
    <lane id=":0_1_2" index="2" disallow="pedestrian tram rail_urban rail rail_electric rail_fast ship" speed="22.22" length="36.85" width="3.75" shape="929.01,665.37 900.92,689.08"/>
  </edge>
  <edge id=":1_0" function="internal">
    <lane id=":1_0_0" index="0" disallow="pedestrian tram rail_urban rail rail_electric rail_fast ship" speed="19.44" length="46.70" width="3.75" shape="399.83,966.73 411.20,960.63 423.35,953.32 433.68,946.63 439.64,942.42"/>
  </edge>
  <edge id=":1_1" function="internal">
    <lane id=":1_1_0" index="0" disallow="pedestrian tram rail_urban rail rail_electric rail_fast ship" speed="22.22" length="46.93" width="3.75" shape="399.83,966.73 442.06,946.30"/>
    <lane id=":1_1_1" index="1" disallow="pedestrian tram rail_urban rail rail_electric rail_fast ship" speed="22.22" length="46.93" width="3.75" shape="401.45,970.11 443.70,949.67"/>
    <lane id=":1_1_2" index="2" disallow="pedestrian tram rail_urban rail rail_electric rail_fast ship" speed="22.22" length="46.93" width="3.75" shape="403.08,973.49 445.34,953.04"/>
  </edge>
  <edge id=":11.10_0" function="internal">
    <lane id=":11.10_0_0" index="0" disallow="pedestrian tram rail_urban rail rail_electric rail_fast ship" speed="22.22" length="0.30" width="3.75" shape="252.72,240.74,20.00 252.54,240.51,20.00"/>
    <lane id=":11.10_0_1" index="1" disallow="pedestrian tram rail_urban rail rail_electric rail_fast ship" speed="22.22" length="0.30" width="3.75" shape="255.63,238.37,20.00 255.44,238.14,20.00"/>
    <lane id=":11.10_0_2" index="2" disallow="pedestrian tram rail_urban rail rail_electric rail_fast ship" speed="22.22" length="0.30" width="3.75" shape="258.53,236.00,20.00 258.34,235.76,20.00"/>
  </edge>
  <edge id=":13.12_0" function="internal">
    <lane id=":13.12_0_0" index="0" disallow="pedestrian tram rail_urban rail rail_electric rail_fast ship" speed="16.67" length="0.30" width="3.75" shape="497.71,818.98,8.10 497.74,818.69,8.11"/>
  </edge>
  <edge id=":16.15_0" function="internal">
    <lane id=":16.15_0_0" index="0" disallow="pedestrian tram rail_urban rail rail_electric rail_fast ship" speed="9.72" length="0.69" width="3.75" shape="590.38,648.63,13.56 589.71,648.48,13.60"/>
  </edge>
  <edge id=":19.18_0" function="internal">
    <lane id=":19.18_0_0" index="0" disallow="pedestrian tram rail_urban rail rail_electric rail_fast ship" speed="13.89" length="0.29" width="3.75" shape="705.88,938.86,6.82 705.59,938.87,6.82"/>
  </edge>
  <edge id=":2_0" function="internal">
    <lane id=":2_0_0" index="0" disallow="pedestrian tram rail_urban rail rail_electric rail_fast ship" speed="15.97" length="7.99" width="3.75" shape="459.10,541.74,20.00 463.20,548.59,20.00"/>
  </edge>
  <edge id=":2.1_0" function="internal">
    <lane id=":2.1_0_0" index="0" disallow="pedestrian tram rail_urban rail rail_electric rail_fast ship" speed="22.22" length="0.30" width="3.75" shape="770.96,793.64 770.70,793.81"/>
    <lane id=":2.1_0_1" index="1" disallow="pedestrian tram rail_urban rail rail_electric rail_fast ship" speed="22.22" length="0.30" width="3.75" shape="768.92,790.50 768.67,790.66"/>
    <lane id=":2.1_0_2" index="2" disallow="pedestrian tram rail_urban rail rail_electric rail_fast ship" speed="22.22" length="0.30" width="3.75" shape="766.88,787.35 766.63,787.51"/>
  </edge>
  <edge id=":21.20_0" function="internal">
    <lane id=":21.20_0_0" index="0" disallow="pedestrian tram rail_urban rail rail_electric rail_fast ship" speed="16.67" length="0.30" width="3.75" shape="977.30,1052.00,6.91 977.15,1052.25,6.90"/>
  </edge>
  <edge id=":3_0" function="internal">
    <lane id=":3_0_0" index="0" disallow="pedestrian tram rail_urban rail rail_electric rail_fast ship" speed="19.44" length="8.08" width="3.75" shape="443.98,560.81,19.99 439.88,553.85,20.00"/>
  </edge>
  <edge id=":4_0" function="internal">
    <lane id=":4_0_0" index="0" disallow="pedestrian tram rail_urban rail rail_electric rail_fast ship" speed="15.97" length="60.76" width="3.75" shape="876.85,683.28,0.00 884.81,678.10,0.00 898.88,668.31,0.00 914.26,657.12,0.00 926.11,647.75"/>
  </edge>
  <edge id=":4_1" function="internal">
    <lane id=":4_1_0" index="0" disallow="pedestrian tram rail_urban rail rail_electric rail_fast ship" speed="22.22" length="60.41" width="3.75" shape="879.97,686.53 926.11,647.75"/>
    <lane id=":4_1_1" index="1" disallow="pedestrian tram rail_urban rail rail_electric rail_fast ship" speed="22.22" length="60.41" width="3.75" shape="882.33,689.44 928.57,650.58"/>
    <lane id=":4_1_2" index="2" disallow="pedestrian tram rail_urban rail rail_electric rail_fast ship" speed="22.22" length="60.41" width="3.75" shape="884.68,692.36 931.04,653.40"/>
  </edge>
  <edge id=":5_0" function="internal">
    <lane id=":5_0_0" index="0" disallow="pedestrian tram rail_urban rail rail_electric rail_fast ship" speed="13.19" length="30.05" width="3.75" shape="589.90,648.53,13.60 619.15,655.43,13.52"/>
  </edge>
  <edge id=":5_1" function="internal">
    <lane id=":5_1_0" index="0" disallow="pedestrian tram rail_urban rail rail_electric rail_fast ship" speed="9.72" length="30.70" width="3.75" shape="589.90,648.53,13.60 595.80,650.42,13.59 604.35,653.66,13.57 612.83,657.09,13.55 618.52,659.57,13.54"/>
  </edge>
  <edge id=":6_0" function="internal">
    <lane id=":6_0_0" index="0" disallow="pedestrian tram rail_urban rail rail_electric rail_fast ship" speed="16.67" length="51.07" width="3.75" shape="496.32,736.32,13.43 494.92,727.04,13.45 492.33,711.10,13.47 489.66,695.17,13.50 488.00,685.94,13.51"/>
  </edge>
  <edge id=":6_1" function="internal">
    <lane id=":6_1_0" index="0" disallow="pedestrian tram rail_urban rail rail_electric rail_fast ship" speed="15.28" length="50.74" width="3.75" shape="500.19,735.19,13.25 488.00,685.94,13.51"/>
  </edge>
  <edge id=":6.5_0" function="internal">
    <lane id=":6.5_0_0" index="0" disallow="pedestrian tram rail_urban rail rail_electric rail_fast ship" speed="22.22" length="0.30" width="3.75" shape="758.35,774.71 758.59,774.55"/>
    <lane id=":6.5_0_1" index="1" disallow="pedestrian tram rail_urban rail rail_electric rail_fast ship" speed="22.22" length="0.30" width="3.75" shape="760.38,777.86 760.63,777.69"/>
    <lane id=":6.5_0_2" index="2" disallow="pedestrian tram rail_urban rail rail_electric rail_fast ship" speed="22.22" length="0.30" width="3.75" shape="762.42,781.01 762.67,780.84"/>
  </edge>
  <edge id=":7_0" function="internal">
    <lane id=":7_0_0" index="0" disallow="pedestrian tram rail_urban rail rail_electric rail_fast ship" speed="13.14" length="18.32" width="3.75" shape="415.88,993.28,0.01 411.09,991.62,0.00 406.53,990.98,0.00 402.21,991.36,0.00 398.13,992.75"/>
  </edge>
  <edge id=":7_1" function="internal">
    <lane id=":7_1_0" index="0" disallow="pedestrian tram rail_urban rail rail_electric rail_fast ship" speed="22.22" length="16.18" width="3.75" shape="412.72,985.74 398.13,992.75"/>
    <lane id=":7_1_1" index="1" disallow="pedestrian tram rail_urban rail rail_electric rail_fast ship" speed="22.22" length="16.18" width="3.75" shape="411.09,982.36 396.51,989.37"/>
    <lane id=":7_1_2" index="2" disallow="pedestrian tram rail_urban rail rail_electric rail_fast ship" speed="22.22" length="16.18" width="3.75" shape="409.47,978.98 394.88,985.99"/>
  </edge>
  <edge id=":9.8_0" function="internal">
    <lane id=":9.8_0_0" index="0" disallow="pedestrian tram rail_urban rail rail_electric rail_fast ship" speed="22.22" length="0.30" width="3.75" shape="270.14,226.10,20.00 270.33,226.34,20.00"/>
    <lane id=":9.8_0_1" index="1" disallow="pedestrian tram rail_urban rail rail_electric rail_fast ship" speed="22.22" length="0.30" width="3.75" shape="267.24,228.48,20.00 267.43,228.71,20.00"/>
    <lane id=":9.8_0_2" index="2" disallow="pedestrian tram rail_urban rail rail_electric rail_fast ship" speed="22.22" length="0.30" width="3.75" shape="264.34,230.86,20.00 264.53,231.08,20.00"/>
  </edge>
  <edge id="-0" from="0.begin" to="0" priority="1" type="driving" shape="1102.63,502.95 1101.44,503.95 1100.24,504.96 1099.04,505.98 1097.84,507.01 1096.64,508.05 1095.43,509.09 1094.22,510.14 1093.01,511.19 1091.79,512.26 1090.57,513.33 1089.35,514.40 1088.12,515.49 1086.89,516.58 1085.66,517.67 1084.43,518.78 1083.19,519.89 1081.95,521.01 1080.70,522.13 1079.45,523.27 1078.20,524.40 1076.94,525.55 1075.68,526.70 1074.42,527.86 1073.15,529.02 1071.88,530.19 1070.61,531.37 1069.33,532.55 1068.05,533.74 1066.76,534.94 1065.47,536.14 1064.18,537.35 1062.88,538.56 1061.58,539.79 1060.27,541.01 1058.96,542.25 1057.64,543.48 1056.32,544.73 1055.00,545.98 1053.67,547.24 1052.34,548.50 1051.00,549.77 1049.66,551.04 1048.31,552.32 1046.96,553.61 1045.60,554.90 1044.24,556.20 1042.88,557.50 1041.51,558.81 1040.13,560.12 1038.75,561.44 1037.36,562.76 1035.97,564.09 1034.58,565.43 1033.17,566.77 1031.77,568.11 1030.35,569.46 1028.94,570.82 1027.51,572.18 1026.09,573.55 1024.65,574.92 1023.21,576.29 1021.77,577.67 1020.32,579.06 1018.86,580.45 1017.40,581.85 1015.93,583.25 1014.46,584.65 1012.98,586.06 1011.49,587.48 1010.00,588.90 1008.50,590.32 1007.00,591.75 1005.49,593.18 1003.97,594.62 1002.45,596.07 1000.92,597.51 999.38,598.96 997.84,600.42 996.29,601.88 994.74,603.34 993.18,604.81 991.61,606.28 990.04,607.76 988.45,609.24 986.87,610.73 985.27,612.21 983.67,613.71 982.06,615.20 980.44,616.70 978.82,618.21 977.19,619.72 975.56,621.23 973.91,622.75 972.26,624.26 970.60,625.79 968.94,627.32 967.26,628.85 965.58,630.38 963.89,631.92 962.20,633.46 960.49,635.00 958.78,636.55 957.07,638.10 955.34,639.66 953.60,641.22 951.86,642.78 950.11,644.34 948.36,645.91 946.59,647.48 944.82,649.05 943.03,650.63 941.25,652.21 939.45,653.79 937.64,655.38 935.83,656.97 934.00,658.56 932.17,660.15 930.33,661.75 928.48,663.35 926.63,664.95 924.76,666.56">
    <lane id="-0_0" index="0" disallow="pedestrian tram rail_urban rail rail_electric rail_fast ship" speed="22.22" length="237.65" width="3.75" shape="1108.67,510.12 1107.49,511.12 1106.31,512.11 1105.13,513.12 1103.94,514.13 1102.75,515.15 1101.56,516.18 1100.37,517.21 1099.17,518.26 1097.97,519.31 1096.76,520.37 1095.55,521.43 1094.34,522.50 1093.12,523.58 1091.90,524.67 1090.68,525.76 1089.45,526.86 1088.22,527.97 1086.99,529.09 1085.75,530.21 1084.51,531.34 1083.26,532.47 1082.01,533.61 1080.76,534.76 1079.50,535.92 1078.24,537.08 1076.97,538.25 1075.70,539.43 1074.43,540.61 1073.15,541.80 1071.87,543.00 1070.58,544.20 1069.29,545.41 1067.99,546.62 1066.69,547.84 1065.38,549.07 1064.07,550.31 1062.76,551.55 1061.44,552.79 1060.12,554.05 1058.79,555.30 1057.45,556.57 1056.11,557.84 1054.77,559.12 1053.42,560.40 1052.07,561.69 1050.71,562.98 1049.35,564.28 1047.98,565.59 1046.60,566.90 1045.22,568.22 1043.84,569.54 1042.45,570.87 1041.05,572.20 1039.65,573.54 1038.25,574.89 1036.83,576.24 1035.42,577.59 1033.99,578.95 1032.57,580.32 1031.13,581.69 1029.69,583.07 1028.24,584.45 1026.79,585.84 1025.33,587.23 1023.87,588.63 1022.40,590.03 1020.93,591.44 1019.44,592.85 1017.95,594.27 1016.46,595.69 1014.96,597.12 1013.45,598.55 1011.94,599.99 1010.42,601.43 1008.89,602.87 1007.36,604.32 1005.82,605.78 1004.28,607.24 1002.72,608.70 1001.16,610.17 999.60,611.64 998.03,613.12 996.45,614.60 994.86,616.09 993.27,617.58 991.67,619.07 990.06,620.57 988.44,622.07 986.82,623.58 985.19,625.09 983.56,626.60 981.91,628.12 980.26,629.64 978.61,631.17 976.94,632.70 975.27,634.23 973.59,635.77 971.90,637.31 970.20,638.85 968.50,640.40 966.79,641.95 965.07,643.51 963.34,645.07 961.61,646.63 959.87,648.19 958.12,649.76 956.36,651.33 954.59,652.91 952.82,654.49 951.03,656.07 949.24,657.65 947.44,659.24 945.64,660.83 943.82,662.43 942.00,664.02 940.16,665.62 938.32,667.23 936.47,668.83 934.62,670.44 933.91,671.05" type="driving"/>
    <lane id="-0_1" index="1" disallow="pedestrian tram rail_urban rail rail_electric rail_fast ship" speed="22.22" length="237.65" width="3.75" shape="1106.26,507.25 1105.07,508.25 1103.88,509.25 1102.69,510.26 1101.50,511.28 1100.31,512.31 1099.11,513.34 1097.91,514.38 1096.70,515.43 1095.49,516.49 1094.28,517.55 1093.07,518.62 1091.85,519.70 1090.63,520.78 1089.41,521.87 1088.18,522.97 1086.95,524.07 1085.71,525.19 1084.47,526.31 1083.23,527.43 1081.99,528.56 1080.74,529.70 1079.48,530.85 1078.22,532.00 1076.96,533.16 1075.70,534.33 1074.43,535.50 1073.15,536.68 1071.88,537.86 1070.59,539.06 1069.31,540.25 1068.02,541.46 1066.72,542.67 1065.43,543.89 1064.12,545.11 1062.81,546.34 1061.50,547.58 1060.19,548.82 1058.86,550.07 1057.54,551.32 1056.21,552.58 1054.87,553.85 1053.53,555.12 1052.19,556.40 1050.84,557.68 1049.48,558.97 1048.12,560.27 1046.76,561.57 1045.39,562.87 1044.01,564.19 1042.63,565.51 1041.25,566.83 1039.86,568.16 1038.46,569.49 1037.06,570.83 1035.65,572.18 1034.24,573.53 1032.83,574.88 1031.40,576.24 1029.97,577.61 1028.54,578.98 1027.10,580.36 1025.65,581.74 1024.20,583.13 1022.75,584.52 1021.28,585.92 1019.81,587.32 1018.34,588.73 1016.86,590.14 1015.37,591.55 1013.88,592.97 1012.38,594.40 1010.87,595.83 1009.36,597.27 1007.84,598.71 1006.32,600.15 1004.78,601.60 1003.25,603.05 1001.70,604.51 1000.15,605.97 998.59,607.44 997.03,608.91 995.46,610.38 993.88,611.86 992.30,613.35 990.71,614.84 989.11,616.33 987.50,617.82 985.89,619.32 984.27,620.83 982.64,622.34 981.01,623.85 979.37,625.36 977.72,626.88 976.07,628.41 974.40,629.93 972.73,631.46 971.06,633.00 969.37,634.54 967.68,636.08 965.98,637.62 964.27,639.17 962.56,640.72 960.83,642.28 959.10,643.84 957.36,645.40 955.61,646.97 953.86,648.54 952.10,650.11 950.33,651.68 948.55,653.26 946.76,654.84 944.96,656.43 943.16,658.02 941.35,659.61 939.53,661.20 937.70,662.80 935.86,664.40 934.02,666.00 932.16,667.60 931.46,668.21" type="driving"/>
    <lane id="-0_2" index="2" disallow="pedestrian tram rail_urban rail rail_electric rail_fast ship" speed="22.22" length="237.65" width="3.75" shape="1103.84,504.38 1102.65,505.38 1101.46,506.39 1100.26,507.41 1099.06,508.44 1097.86,509.47 1096.66,510.51 1095.45,511.55 1094.24,512.61 1093.02,513.67 1091.81,514.73 1090.59,515.81 1089.37,516.89 1088.14,517.98 1086.91,519.07 1085.68,520.18 1084.44,521.29 1083.20,522.40 1081.96,523.52 1080.71,524.65 1079.46,525.79 1078.21,526.93 1076.95,528.08 1075.69,529.24 1074.42,530.40 1073.15,531.57 1071.88,532.75 1070.60,533.93 1069.32,535.12 1068.04,536.31 1066.75,537.51 1065.46,538.72 1064.16,539.93 1062.86,541.15 1061.55,542.38 1060.24,543.61 1058.93,544.85 1057.61,546.09 1056.29,547.34 1054.96,548.60 1053.63,549.86 1052.29,551.13 1050.95,552.40 1049.60,553.68 1048.25,554.97 1046.90,556.26 1045.54,557.55 1044.17,558.85 1042.80,560.16 1041.42,561.47 1040.04,562.79 1038.66,564.12 1037.27,565.45 1035.87,566.78 1034.47,568.12 1033.06,569.47 1031.65,570.82 1030.23,572.17 1028.81,573.53 1027.38,574.90 1025.95,576.27 1024.51,577.65 1023.06,579.03 1021.61,580.42 1020.16,581.81 1018.69,583.20 1017.22,584.61 1015.75,586.01 1014.27,587.42 1012.78,588.84 1011.29,590.26 1009.79,591.68 1008.29,593.11 1006.78,594.55 1005.26,595.98 1003.74,597.43 1002.21,598.87 1000.67,600.33 999.13,601.78 997.58,603.24 996.02,604.71 994.46,606.18 992.89,607.65 991.32,609.13 989.73,610.61 988.15,612.10 986.55,613.59 984.95,615.08 983.34,616.58 981.72,618.08 980.10,619.58 978.47,621.09 976.83,622.61 975.18,624.12 973.53,625.65 971.87,627.17 970.20,628.70 968.53,630.23 966.84,631.77 965.16,633.30 963.46,634.85 961.75,636.39 960.04,637.94 958.32,639.50 956.59,641.05 954.86,642.61 953.11,644.17 951.36,645.74 949.60,647.31 947.84,648.88 946.06,650.46 944.28,652.03 942.48,653.62 940.68,655.20 938.88,656.79 937.06,658.38 935.24,659.97 933.40,661.57 931.56,663.17 929.71,664.77 929.01,665.37" type="driving"/>
  </edge>
  <edge id="-1" from="0" to="2.1" priority="1" type="driving" shape="924.76,666.56 923.42,667.71 922.08,668.86 920.73,670.01 919.37,671.17 918.01,672.32 916.65,673.48 915.28,674.64 913.91,675.80 912.53,676.96 911.15,678.12 909.77,679.29 908.38,680.45 906.98,681.62 905.58,682.78 904.18,683.95 902.77,685.12 901.35,686.29 899.93,687.46 898.51,688.63 897.08,689.81 895.65,690.98 894.21,692.16 892.77,693.34 891.32,694.51 889.87,695.69 888.41,696.87 886.95,698.05 885.48,699.23 884.01,700.42 882.53,701.60 881.05,702.78 879.57,703.97 878.07,705.15 876.58,706.34 875.07,707.53 873.57,708.72 872.06,709.91 870.54,711.10 869.02,712.29 867.49,713.48 865.96,714.67 864.42,715.87 862.87,717.06 861.33,718.25 859.77,719.45 858.21,720.65 856.65,721.84 855.08,723.04 853.51,724.24 851.93,725.44 850.34,726.64 848.75,727.84 847.15,729.04 845.55,730.24 843.95,731.44 842.33,732.64 840.72,733.84 839.09,735.05 837.46,736.25 835.83,737.46 834.19,738.66 832.54,739.87 830.89,741.07 829.24,742.28 827.58,743.48 825.91,744.69 824.23,745.90 822.56,747.11 820.87,748.31 819.18,749.52 817.49,750.73 815.78,751.94 814.08,753.15 812.36,754.36 810.64,755.57 808.92,756.78 807.19,757.99 805.45,759.20 803.71,760.41 801.96,761.62 800.21,762.83 798.45,764.04 796.68,765.25 794.91,766.47 793.13,767.68 791.35,768.89 789.56,770.10 787.76,771.31 785.96,772.52 784.15,773.74 782.34,774.95 780.52,776.16 778.69,777.37 776.86,778.59 775.02,779.80 773.18,781.01 771.33,782.22 769.47,783.43 767.61,784.64 765.74,785.86">
    <lane id="-1_0" index="0" disallow="pedestrian tram rail_urban rail rail_electric rail_fast ship" speed="22.22" length="166.72" width="3.75" shape="905.69,694.87 904.47,695.87 903.03,697.06 901.59,698.24 900.14,699.42 898.69,700.60 897.23,701.79 895.77,702.97 894.31,704.16 892.84,705.35 891.36,706.54 889.88,707.73 888.39,708.92 886.90,710.11 885.40,711.30 883.90,712.50 882.40,713.69 880.88,714.89 879.37,716.08 877.85,717.28 876.32,718.48 874.79,719.68 873.25,720.88 871.71,722.08 870.16,723.28 868.61,724.48 867.05,725.68 865.48,726.88 863.92,728.09 862.34,729.29 860.76,730.50 859.18,731.70 857.59,732.91 855.99,734.12 854.39,735.32 852.78,736.53 851.17,737.74 849.56,738.95 847.93,740.16 846.30,741.37 844.67,742.58 843.03,743.79 841.39,745.01 839.74,746.22 838.08,747.43 836.42,748.65 834.75,749.86 833.08,751.07 831.40,752.29 829.71,753.50 828.02,754.72 826.33,755.94 824.63,757.15 822.92,758.37 821.21,759.59 819.49,760.80 817.76,762.02 816.03,763.24 814.30,764.46 812.56,765.67 810.81,766.89 809.05,768.11 807.29,769.33 805.53,770.55 803.76,771.77 801.98,772.99 800.20,774.21 798.41,775.43 796.61,776.65 794.81,777.87 793.00,779.09 791.19,780.31 789.37,781.53 787.54,782.75 785.71,783.97 783.87,785.19 782.03,786.41 780.18,787.63 778.32,788.85 776.46,790.07 774.59,791.29 772.71,792.51 770.96,793.64" type="driving"/>
    <lane id="-1_1" index="1" disallow="pedestrian tram rail_urban rail rail_electric rail_fast ship" speed="22.22" length="166.72" width="3.75" shape="903.30,691.98 902.09,692.98 900.65,694.16 899.21,695.34 897.77,696.52 896.32,697.70 894.87,698.88 893.41,700.06 891.95,701.25 890.48,702.43 889.01,703.62 887.53,704.80 886.05,705.99 884.56,707.18 883.07,708.37 881.57,709.56 880.07,710.75 878.56,711.94 877.05,713.14 875.53,714.33 874.01,715.53 872.48,716.72 870.95,717.92 869.41,719.11 867.86,720.31 866.31,721.51 864.76,722.71 863.20,723.91 861.64,725.11 860.07,726.31 858.49,727.51 856.91,728.72 855.32,729.92 853.73,731.12 852.13,732.33 850.53,733.53 848.92,734.74 847.31,735.95 845.69,737.15 844.07,738.36 842.44,739.57 840.80,740.78 839.16,741.99 837.52,743.20 835.87,744.41 834.21,745.62 832.55,746.83 830.88,748.04 829.20,749.25 827.52,750.46 825.84,751.67 824.15,752.89 822.45,754.10 820.75,755.31 819.04,756.53 817.32,757.74 815.60,758.96 813.88,760.17 812.15,761.38 810.41,762.60 808.67,763.82 806.92,765.03 805.16,766.25 803.40,767.46 801.63,768.68 799.86,769.89 798.08,771.11 796.30,772.33 794.51,773.54 792.71,774.76 790.91,775.98 789.10,777.19 787.28,778.41 785.46,779.63 783.63,780.84 781.80,782.06 779.96,783.28 778.11,784.50 776.26,785.71 774.40,786.93 772.54,788.15 770.67,789.36 768.92,790.50" type="driving"/>
    <lane id="-1_2" index="2" disallow="pedestrian tram rail_urban rail rail_electric rail_fast ship" speed="22.22" length="166.72" width="3.75" shape="900.92,689.08 899.70,690.08 898.27,691.26 896.84,692.43 895.40,693.61 893.95,694.79 892.50,695.97 891.05,697.15 889.59,698.33 888.13,699.51 886.66,700.69 885.18,701.88 883.71,703.06 882.22,704.25 880.73,705.44 879.24,706.62 877.74,707.81 876.24,709.00 874.73,710.19 873.21,711.38 871.69,712.57 870.17,713.77 868.64,714.96 867.11,716.15 865.57,717.35 864.02,718.54 862.47,719.74 860.92,720.94 859.35,722.13 857.79,723.33 856.22,724.53 854.64,725.73 853.06,726.93 851.47,728.13 849.88,729.33 848.28,730.54 846.68,731.74 845.07,732.94 843.45,734.15 841.83,735.35 840.21,736.55 838.58,737.76 836.94,738.97 835.30,740.17 833.65,741.38 832.00,742.59 830.34,743.79 828.68,745.00 827.01,746.21 825.33,747.42 823.65,748.63 821.96,749.84 820.27,751.05 818.57,752.26 816.87,753.47 815.16,754.68 813.44,755.89 811.72,757.10 809.99,758.31 808.26,759.53 806.52,760.74 804.78,761.95 803.03,763.16 801.27,764.37 799.51,765.59 797.74,766.80 795.97,768.01 794.19,769.23 792.40,770.44 790.61,771.65 788.81,772.87 787.01,774.08 785.20,775.29 783.38,776.51 781.56,777.72 779.73,778.94 777.89,780.15 776.05,781.36 774.21,782.58 772.35,783.79 770.49,785.00 768.63,786.22 766.88,787.35" type="driving"/>
  </edge>
  <edge id="-10" from="3" to="11.10" priority="1" type="driving" shape="450.00,552.53,20.00 449.18,551.15,20.00 448.36,549.77,20.00 447.55,548.39,20.00 446.74,547.01,20.00 445.94,545.63,20.00 445.15,544.25,20.00 444.36,542.88,20.00 443.58,541.50,20.00 442.81,540.13,20.00 442.04,538.75,20.00 441.27,537.38,20.00 440.51,536.01,20.00 439.76,534.63,20.00 439.01,533.26,20.00 438.27,531.89,20.00 437.53,530.52,20.00 436.79,529.15,20.00 436.06,527.78,20.00 435.33,526.41,20.00 434.61,525.04,20.00 433.89,523.67,20.00 433.18,522.30,20.00 432.46,520.93,20.00 431.76,519.56,20.00 431.05,518.18,20.00 430.35,516.81,20.00 429.65,515.44,20.00 428.96,514.07,20.00 428.27,512.69,20.00 427.58,511.32,20.00 426.89,509.94,20.00 426.20,508.56,20.00 425.52,507.18,20.00 424.84,505.81,20.00 424.16,504.42,20.00 423.49,503.04,20.00 422.81,501.66,20.00 422.14,500.27,20.00 421.46,498.89,20.00 420.79,497.50,20.00 420.12,496.11,20.00 419.45,494.72,20.00 418.78,493.33,20.00 418.12,491.93,20.00 417.45,490.53,20.00 416.78,489.13,20.00 416.12,487.73,20.00 415.45,486.33,20.00 414.78,484.92,20.00 414.11,483.51,20.00 413.45,482.10,20.00 412.78,480.69,20.00 412.11,479.27,20.00 411.44,477.85,20.00 410.77,476.43,20.00 410.10,475.00,20.00 409.43,473.57,20.00 408.75,472.14,20.00 408.08,470.71,20.00 407.40,469.27,20.00 406.72,467.83,20.00 406.04,466.39,20.00 405.36,464.94,20.00 404.67,463.49,20.00 403.99,462.03,20.00 403.29,460.57,20.00 402.60,459.11,20.00 401.91,457.64,20.00 401.21,456.17,20.00 400.51,454.70,20.00 399.80,453.22,20.00 399.09,451.73,20.00 398.38,450.25,20.00 397.67,448.76,20.00 396.95,447.26,20.00 396.22,445.76,20.00 395.50,444.25,20.00 394.77,442.74,20.00 394.03,441.23,20.00 393.29,439.71,20.00 392.54,438.18,20.00 391.79,436.65,20.00 391.04,435.12,20.00 390.28,433.58,20.00 389.51,432.04,20.00 388.74,430.48,20.00 387.97,428.93,20.00 387.19,427.37,20.00 386.40,425.80,20.00 385.60,424.23,20.00 384.80,422.65,20.00 384.00,421.07,20.00 383.19,419.48,20.00 382.37,417.88,20.00 381.54,416.28,20.00 380.71,414.67,20.00 379.87,413.05,20.00 379.02,411.43,20.00 378.17,409.81,20.00 377.31,408.17,20.00 376.44,406.53,20.00 375.56,404.89,20.00 374.68,403.23,20.00 373.79,401.57,20.00 372.89,399.91,20.00 371.98,398.23,20.00 371.06,396.55,20.00 370.14,394.86,20.00 369.20,393.17,20.00 368.26,391.46,20.00 367.31,389.75,20.00 366.35,388.04,20.00 365.38,386.31,20.00 364.40,384.58,20.00 363.41,382.84,20.00 362.41,381.09,20.00 361.40,379.33,20.00 360.38,377.57,20.00 359.36,375.80,20.00 358.32,374.02,20.00 357.27,372.23,20.00 356.21,370.44,20.00 355.14,368.63,20.00 354.06,366.82,20.00 352.96,365.00,20.00 351.86,363.17,20.00 350.74,361.33,20.00 349.62,359.48,20.00 348.48,357.63,20.00 347.33,355.76,20.00 346.17,353.89,20.00 345.00,352.00,20.00 343.81,350.11,20.00 342.61,348.21,20.00 341.40,346.30,20.00 340.18,344.38,20.00 338.95,342.45,20.00 337.70,340.51,20.00 336.44,338.56,20.00 335.16,336.61,20.00 333.88,334.64,20.00 332.58,332.66,20.00 331.26,330.67,20.00 329.93,328.68,20.00 328.59,326.67,20.00 327.23,324.65,20.00 325.86,322.62,20.00 324.48,320.58,20.00 323.08,318.54,20.00 321.67,316.48,20.00 320.24,314.41,20.00 318.80,312.33,20.00 317.34,310.24,20.00 315.87,308.13,20.00 314.38,306.02,20.00 312.88,303.90,20.00 311.36,301.76,20.00 309.82,299.62,20.00 308.27,297.46,20.00 306.70,295.29,20.00 305.12,293.11,20.00 303.52,290.92,20.00 301.91,288.72,20.00 300.27,286.50,20.00 298.62,284.28,20.00 296.96,282.04,20.00 295.28,279.79,20.00 293.58,277.53,20.00 291.86,275.25,20.00 290.13,272.97,20.00 288.37,270.67,20.00 286.60,268.36,20.00 284.82,266.04,20.00 283.01,263.70,20.00 281.19,261.36,20.00 279.34,259.00,20.00 277.48,256.62,20.00 275.60,254.24,20.00 273.71,251.84,20.00 271.79,249.43,20.00 269.85,247.01,20.00 267.90,244.57,20.00 265.93,242.12,20.00 263.93,239.66,20.00 261.92,237.18,20.00 259.89,234.69,20.00">