<?xml version='1.0' encoding='UTF-8'?>
<!-- generated on 2022-11-13 00:27:47 by Eclipse SUMO netconvert Version 1.13.0
<configuration xmlns:xsi="http://www.w3.org/2001/XMLSchema-instance" xsi:noNamespaceSchemaLocation="http://sumo.dlr.de/xsd/netconvertConfiguration.xsd">

    <input>
        <opendrive-files value="map_v4\21\25261414\25261414.xodr"/>
    </input>

    <output>
        <output-file value="C:\Users\LinGe\AppData\Local\Temp\tmp2cocn4j5\25261414.net.xml"/>
    </output>

    <processing>
        <geometry.max-grade.fix value="false"/>
    </processing>

    <tls_building>
        <tls.left-green.time value="0"/>
    </tls_building>

    <junctions>
        <rectangular-lane-cut value="true"/>
    </junctions>

    <report>
        <aggregate-warnings value="5"/>
    </report>

</configuration>
-->
<net xmlns:xsi="http://www.w3.org/2001/XMLSchema-instance" version="1.9" junctionCornerDetail="5" rectangularLaneCut="true" limitTurnSpeed="5.50" xsi:noNamespaceSchemaLocation="http://sumo.dlr.de/xsd/net_file.xsd">
  <location netOffset="1.56,101.26" convBoundary="0.00,0.00,1102.73,1302.51" origBoundary="-1.56,-101.26,1101.18,1201.26" projParameter="!"/>
  <type id="bidirectional" priority="1" speed="1.39" disallow="pedestrian tram rail_urban rail rail_electric rail_fast ship" width="3.65"/>
  <type id="border" priority="0" speed="1.39" disallow="all" discard="1" width="0.10"/>
  <type id="driving" priority="1" speed="13.89" disallow="pedestrian tram rail_urban rail rail_electric rail_fast ship" width="3.65"/>
  <type id="entry" priority="1" speed="22.22" disallow="pedestrian tram rail_urban rail rail_electric rail_fast ship" width="3.65"/>
  <type id="exit" priority="1" speed="22.22" disallow="pedestrian tram rail_urban rail rail_electric rail_fast ship" width="3.65"/>
  <type id="median" priority="0" speed="1.39" disallow="all" discard="1" width="0.10"/>
  <type id="mwyEntry" priority="1" speed="22.22" allow="private emergency authority army vip passenger hov taxi bus coach delivery truck trailer motorcycle evehicle custom1 custom2" width="3.65"/>
  <type id="mwyExit" priority="1" speed="22.22" allow="private emergency authority army vip passenger hov taxi bus coach delivery truck trailer motorcycle evehicle custom1 custom2" width="3.65"/>
  <type id="none" priority="0" speed="1.39" disallow="all" discard="1" width="1.00"/>
  <type id="offRamp" priority="1" speed="22.22" allow="private emergency authority army vip passenger hov taxi bus coach delivery truck trailer motorcycle evehicle custom1 custom2" width="3.65"/>
  <type id="onRamp" priority="1" speed="22.22" allow="private emergency authority army vip passenger hov taxi bus coach delivery truck trailer motorcycle evehicle custom1 custom2" width="3.65"/>
  <type id="parking" priority="1" speed="1.39" disallow="pedestrian tram rail_urban rail rail_electric rail_fast ship" width="2.50"/>
  <type id="rail" priority="3" speed="33.33" allow="rail_urban rail rail_electric rail_fast" width="3.65"/>
  <type id="restricted" priority="0" speed="13.89" disallow="all" width="3.65"/>
  <type id="roadWorks" priority="0" speed="1.39" allow="authority" width="3.65"/>
  <type id="shoulder" priority="0" speed="1.39" disallow="all" discard="1" width="1.00"/>
  <type id="special1" priority="1" speed="22.22" allow="custom1" discard="1" width="3.65"/>
  <type id="special2" priority="1" speed="22.22" allow="custom2" discard="1" width="3.65"/>
  <type id="special3" priority="1" speed="22.22" allow="custom1 custom2" discard="1" width="3.65"/>
  <type id="stop" priority="1" speed="13.89" disallow="pedestrian tram rail_urban rail rail_electric rail_fast ship" width="3.65"/>
  <type id="tram" priority="2" speed="13.89" allow="tram" width="3.65"/>
  <edge id=":0_0" function="internal">
    <lane id=":0_0_0" index="0" disallow="pedestrian tram rail_urban rail rail_electric rail_fast ship" speed="20.83" length="55.04" width="3.75" shape="995.75,277.46 983.80,285.17 969.83,294.93 957.56,303.86 950.71,309.07"/>
  </edge>
  <edge id=":0_1" function="internal">
    <lane id=":0_1_0" index="0" disallow="pedestrian tram rail_urban rail rail_electric rail_fast ship" speed="22.22" length="55.18" width="3.75" shape="995.75,277.46 948.23,305.52"/>
    <lane id=":0_1_1" index="1" disallow="pedestrian tram rail_urban rail rail_electric rail_fast ship" speed="22.22" length="55.18" width="3.75" shape="993.84,274.23 946.32,302.29"/>
    <lane id=":0_1_2" index="2" disallow="pedestrian tram rail_urban rail rail_electric rail_fast ship" speed="22.22" length="55.18" width="3.75" shape="991.94,271.00 944.42,299.06"/>
  </edge>
  <edge id=":1_0" function="internal">
    <lane id=":1_0_0" index="0" disallow="pedestrian tram rail_urban rail rail_electric rail_fast ship" speed="16.67" length="40.26" width="3.75" shape="417.63,645.36 408.69,653.22 400.25,661.70 393.48,669.21 389.57,674.13"/>
  </edge>
  <edge id=":1_1" function="internal">
    <lane id=":1_1_0" index="0" disallow="pedestrian tram rail_urban rail rail_electric rail_fast ship" speed="22.22" length="40.52" width="3.75" shape="417.63,645.36 386.18,670.83"/>
    <lane id=":1_1_1" index="1" disallow="pedestrian tram rail_urban rail rail_electric rail_fast ship" speed="22.22" length="40.52" width="3.75" shape="415.29,642.43 383.80,667.93"/>
    <lane id=":1_1_2" index="2" disallow="pedestrian tram rail_urban rail rail_electric rail_fast ship" speed="22.22" length="40.52" width="3.75" shape="412.95,639.49 381.42,665.03"/>
  </edge>
  <edge id=":10_0" function="internal">
    <lane id=":10_0_0" index="0" disallow="pedestrian tram rail_urban rail rail_electric rail_fast ship" speed="16.67" length="86.53" width="3.75" shape="902.80,301.17 914.85,295.03 937.91,283.03 962.54,269.99 979.31,260.76"/>
  </edge>
  <edge id=":10_1" function="internal">
    <lane id=":10_1_0" index="0" disallow="pedestrian tram rail_urban rail rail_electric rail_fast ship" speed="22.22" length="86.26" width="3.75" shape="905.05,304.66 979.31,260.76"/>
    <lane id=":10_1_1" index="1" disallow="pedestrian tram rail_urban rail rail_electric rail_fast ship" speed="22.22" length="86.26" width="3.75" shape="906.96,307.89 981.22,263.99"/>
    <lane id=":10_1_2" index="2" disallow="pedestrian tram rail_urban rail rail_electric rail_fast ship" speed="22.22" length="86.26" width="3.75" shape="908.87,311.11 983.12,267.22"/>
  </edge>
  <edge id=":11_0" function="internal">
    <lane id=":11_0_0" index="0" disallow="pedestrian tram rail_urban rail rail_electric rail_fast ship" speed="20.83" length="72.82" width="3.75" shape="886.13,1101.45,20.00 893.20,1110.37,20.00 906.67,1126.86,20.00 921.50,1144.64,20.00 932.70,1157.43,20.00"/>
  </edge>
  <edge id=":11_1" function="internal">
    <lane id=":11_1_0" index="0" disallow="pedestrian tram rail_urban rail rail_electric rail_fast ship" speed="22.22" length="72.49" width="3.75" shape="883.15,1104.52,20.00 932.70,1157.43,20.00"/>
    <lane id=":11_1_1" index="1" disallow="pedestrian tram rail_urban rail rail_electric rail_fast ship" speed="22.22" length="72.49" width="3.75" shape="880.41,1107.08,20.00 929.96,1160.00,20.00"/>
    <lane id=":11_1_2" index="2" disallow="pedestrian tram rail_urban rail rail_electric rail_fast ship" speed="22.22" length="72.49" width="3.75" shape="877.67,1109.64,20.00 927.22,1162.56,20.00"/>
  </edge>
  <edge id=":12_0" function="internal">
    <lane id=":12_0_0" index="0" disallow="pedestrian tram rail_urban rail rail_electric rail_fast ship" speed="16.67" length="25.23" width="3.75" shape="516.91,748.45,20.00 516.45,744.14,20.00 514.82,738.82,20.00 511.66,732.68,20.00 506.64,725.91,20.00"/>
  </edge>
  <edge id=":12_1" function="internal">
    <lane id=":12_1_0" index="0" disallow="pedestrian tram rail_urban rail rail_electric rail_fast ship" speed="22.22" length="23.54" width="3.75" shape="522.10,743.68,20.00 506.64,725.91,20.00"/>
    <lane id=":12_1_1" index="1" disallow="pedestrian tram rail_urban rail rail_electric rail_fast ship" speed="22.22" length="23.54" width="3.75" shape="524.92,741.21,20.00 509.47,723.46,20.00"/>
    <lane id=":12_1_2" index="2" disallow="pedestrian tram rail_urban rail rail_electric rail_fast ship" speed="22.22" length="23.54" width="3.75" shape="527.74,738.75,20.00 512.31,721.00,20.00"/>
  </edge>
  <edge id=":13_0" function="internal">
    <lane id=":13_0_0" index="0" disallow="pedestrian tram rail_urban rail rail_electric rail_fast ship" speed="18.06" length="64.71" width="3.75" shape="350.70,665.03,0.00 359.10,659.40,0.00 374.28,648.83,0.00 390.87,637.00,0.00 403.46,627.57"/>
  </edge>
  <edge id=":13_1" function="internal">
    <lane id=":13_1_0" index="0" disallow="pedestrian tram rail_urban rail rail_electric rail_fast ship" speed="22.22" length="64.27" width="3.75" shape="353.62,668.30 403.46,627.57"/>
    <lane id=":13_1_1" index="1" disallow="pedestrian tram rail_urban rail rail_electric rail_fast ship" speed="22.22" length="64.27" width="3.75" shape="356.03,671.17 405.79,630.50"/>
    <lane id=":13_1_2" index="2" disallow="pedestrian tram rail_urban rail rail_electric rail_fast ship" speed="22.22" length="64.27" width="3.75" shape="358.43,674.05 408.13,633.43"/>
  </edge>
  <edge id=":13.12_0" function="internal">
    <lane id=":13.12_0_0" index="0" disallow="pedestrian tram rail_urban rail rail_electric rail_fast ship" speed="22.22" length="0.30" width="3.75" shape="473.78,651.53,20.00 473.96,651.75,20.00"/>
    <lane id=":13.12_0_1" index="1" disallow="pedestrian tram rail_urban rail rail_electric rail_fast ship" speed="22.22" length="0.30" width="3.75" shape="470.86,653.88,20.00 471.05,654.11,20.00"/>
    <lane id=":13.12_0_2" index="2" disallow="pedestrian tram rail_urban rail rail_electric rail_fast ship" speed="22.22" length="0.30" width="3.75" shape="467.94,656.23,20.00 468.13,656.47,20.00"/>
  </edge>
  <edge id=":14_0" function="internal">
    <lane id=":14_0_0" index="0" disallow="pedestrian tram rail_urban rail rail_electric rail_fast ship" speed="16.67" length="28.94" width="3.75" shape="542.83,562.39 538.21,562.80 532.03,564.43 524.58,567.59 516.14,572.59"/>
  </edge>
  <edge id=":14_1" function="internal">
    <lane id=":14_1_0" index="0" disallow="pedestrian tram rail_urban rail rail_electric rail_fast ship" speed="22.22" length="27.53" width="3.75" shape="538.93,557.22 516.14,572.59"/>
    <lane id=":14_1_1" index="1" disallow="pedestrian tram rail_urban rail rail_electric rail_fast ship" speed="22.22" length="27.53" width="3.75" shape="536.84,554.10 514.02,569.50"/>
    <lane id=":14_1_2" index="2" disallow="pedestrian tram rail_urban rail rail_electric rail_fast ship" speed="22.22" length="27.53" width="3.75" shape="534.76,550.98 511.91,566.40"/>
  </edge>
  <edge id=":15_0" function="internal">
    <lane id=":15_0_0" index="0" disallow="pedestrian tram rail_urban rail rail_electric rail_fast ship" speed="19.44" length="18.32" width="3.75" shape="775.15,737.72,12.05 775.72,756.03,12.09"/>
  </edge>
  <edge id=":15_1" function="internal">
    <lane id=":15_1_0" index="0" disallow="pedestrian tram rail_urban rail rail_electric rail_fast ship" speed="16.67" length="17.89" width="3.75" shape="770.96,738.89,12.04 772.68,742.72,12.05 774.16,747.24,12.06 775.22,751.86,12.08 775.72,756.03,12.09"/>
  </edge>
  <edge id=":19.18_0" function="internal">
    <lane id=":19.18_0_0" index="0" disallow="pedestrian tram rail_urban rail rail_electric rail_fast ship" speed="22.22" length="0.30" width="3.75" shape="456.27,666.05,20.00 456.08,665.82,20.00"/>
    <lane id=":19.18_0_1" index="1" disallow="pedestrian tram rail_urban rail rail_electric rail_fast ship" speed="22.22" length="0.30" width="3.75" shape="459.18,663.70,20.00 458.99,663.46,20.00"/>
    <lane id=":19.18_0_2" index="2" disallow="pedestrian tram rail_urban rail rail_electric rail_fast ship" speed="22.22" length="0.30" width="3.75" shape="462.10,661.34,20.00 461.91,661.11,20.00"/>
  </edge>
  <edge id=":2_0" function="internal">
    <lane id=":2_0_0" index="0" disallow="pedestrian tram rail_urban rail rail_electric rail_fast ship" speed="19.44" length="116.35" width="3.75" shape="100.19,895.04 182.89,813.19"/>
  </edge>
  <edge id=":2_1" function="internal">
    <lane id=":2_1_0" index="0" disallow="pedestrian tram rail_urban rail rail_electric rail_fast ship" speed="22.22" length="116.50" width="3.75" shape="100.19,895.04 185.83,816.02"/>
    <lane id=":2_1_1" index="1" disallow="pedestrian tram rail_urban rail rail_electric rail_fast ship" speed="22.22" length="116.50" width="3.75" shape="102.75,897.79 188.36,818.79"/>
    <lane id=":2_1_2" index="2" disallow="pedestrian tram rail_urban rail rail_electric rail_fast ship" speed="22.22" length="116.50" width="3.75" shape="105.30,900.54 190.89,821.56"/>
  </edge>
  <edge id=":23.22_0" function="internal">
    <lane id=":23.22_0_0" index="0" disallow="pedestrian tram rail_urban rail rail_electric rail_fast ship" speed="11.11" length="0.30" width="3.75" shape="408.31,832.12,7.01 408.03,832.03,7.00"/>
  </edge>
  <edge id=":26.25_0" function="internal">
    <lane id=":26.25_0_0" index="0" disallow="pedestrian tram rail_urban rail rail_electric rail_fast ship" speed="16.67" length="0.30" width="3.75" shape="270.93,629.18,7.34 270.91,628.88,7.35"/>
  </edge>
  <edge id=":28.27_0" function="internal">
    <lane id=":28.27_0_0" index="0" disallow="pedestrian tram rail_urban rail rail_electric rail_fast ship" speed="11.11" length="0.30" width="3.75" shape="623.36,374.79,7.50 623.65,374.85,7.49"/>
  </edge>
  <edge id=":3_0" function="internal">
    <lane id=":3_0_0" index="0" disallow="pedestrian tram rail_urban rail rail_electric rail_fast ship" speed="16.67" length="71.16" width="3.75" shape="80.55,96.33,20.00 90.44,109.83,20.00 104.22,127.73,20.00 117.04,144.01,20.00 124.05,152.64,20.00"/>
  </edge>
  <edge id=":3_1" function="internal">
    <lane id=":3_1_0" index="0" disallow="pedestrian tram rail_urban rail rail_electric rail_fast ship" speed="22.22" length="71.29" width="3.75" shape="80.55,96.33,20.00 120.71,155.24,20.00"/>
    <lane id=":3_1_1" index="1" disallow="pedestrian tram rail_urban rail rail_electric rail_fast ship" speed="22.22" length="71.29" width="3.75" shape="77.45,98.44,20.00 117.61,157.35,20.00"/>
    <lane id=":3_1_2" index="2" disallow="pedestrian tram rail_urban rail rail_electric rail_fast ship" speed="22.22" length="71.29" width="3.75" shape="74.35,100.55,20.00 114.51,159.46,20.00"/>
  </edge>
  <edge id=":3.2_0" function="internal">
    <lane id=":3.2_0_0" index="0" disallow="pedestrian tram rail_urban rail rail_electric rail_fast ship" speed="22.22" length="0.30" width="3.75" shape="475.45,601.17 475.21,601.35"/>
    <lane id=":3.2_0_1" index="1" disallow="pedestrian tram rail_urban rail rail_electric rail_fast ship" speed="22.22" length="0.30" width="3.75" shape="473.25,598.14 473.00,598.32"/>
    <lane id=":3.2_0_2" index="2" disallow="pedestrian tram rail_urban rail rail_electric rail_fast ship" speed="22.22" length="0.30" width="3.75" shape="471.04,595.11 470.80,595.29"/>
  </edge>
  <edge id=":30.29_0" function="internal">
    <lane id=":30.29_0_0" index="0" disallow="pedestrian tram rail_urban rail rail_electric rail_fast ship" speed="19.44" length="0.30" width="3.75" shape="780.74,593.11,7.89 780.71,593.41,7.90"/>
  </edge>
  <edge id=":33.32_0" function="internal">
    <lane id=":33.32_0_0" index="0" disallow="pedestrian tram rail_urban rail rail_electric rail_fast ship" speed="11.11" length="0.27" width="3.75" shape="402.89,775.52,9.52 403.10,775.68,9.55"/>
  </edge>
  <edge id=":35.34_0" function="internal">
    <lane id=":35.34_0_0" index="0" disallow="pedestrian tram rail_urban rail rail_electric rail_fast ship" speed="13.89" length="0.29" width="3.75" shape="114.63,612.90,9.29 114.69,613.18,9.28"/>
  </edge>
  <edge id=":37.36_0" function="internal">
    <lane id=":37.36_0_0" index="0" disallow="pedestrian tram rail_urban rail rail_electric rail_fast ship" speed="11.11" length="0.27" width="3.75" shape="584.16,638.77,10.02 584.19,638.50,9.98"/>
  </edge>
  <edge id=":39.38_0" function="internal">
    <lane id=":39.38_0_0" index="0" disallow="pedestrian tram rail_urban rail rail_electric rail_fast ship" speed="13.89" length="0.30" width="3.75" shape="575.83,638.32,9.35 576.13,638.37,9.35"/>
  </edge>
  <edge id=":4_0" function="internal">
    <lane id=":4_0_0" index="0" disallow="pedestrian tram rail_urban rail rail_electric rail_fast ship" speed="16.67" length="26.92" width="3.75" shape="500.87,684.20,20.00 507.11,690.84,20.00 512.81,695.65,20.00 517.79,698.83,20.00 521.87,700.58,20.00"/>
  </edge>
  <edge id=":4_1" function="internal">
    <lane id=":4_1_0" index="0" disallow="pedestrian tram rail_urban rail rail_electric rail_fast ship" speed="22.22" length="27.43" width="3.75" shape="500.87,684.20,20.00 518.66,705.03,20.00"/>
    <lane id=":4_1_1" index="1" disallow="pedestrian tram rail_urban rail rail_electric rail_fast ship" speed="22.22" length="27.43" width="3.75" shape="498.00,686.63,20.00 515.82,707.48,20.00"/>
    <lane id=":4_1_2" index="2" disallow="pedestrian tram rail_urban rail rail_electric rail_fast ship" speed="22.22" length="27.43" width="3.75" shape="495.14,689.05,20.00 512.98,709.93,20.00"/>
  </edge>
  <edge id=":5_0" function="internal">
    <lane id=":5_0_0" index="0" disallow="pedestrian tram rail_urban rail rail_electric rail_fast ship" speed="16.67" length="50.50" width="3.75" shape="886.82,1141.72,20.00 877.19,1132.26,19.97 865.69,1121.89,19.93 855.39,1112.98,19.89 849.33,1107.92,19.87"/>
  </edge>
  <edge id=":5_1" function="internal">
    <lane id=":5_1_0" index="0" disallow="pedestrian tram rail_urban rail rail_electric rail_fast ship" speed="22.22" length="50.61" width="3.75" shape="886.82,1141.72,20.00 852.25,1104.76,20.00"/>
    <lane id=":5_1_1" index="1" disallow="pedestrian tram rail_urban rail rail_electric rail_fast ship" speed="22.22" length="50.61" width="3.75" shape="889.56,1139.16,20.00 854.99,1102.20,20.00"/>
    <lane id=":5_1_2" index="2" disallow="pedestrian tram rail_urban rail rail_electric rail_fast ship" speed="22.22" length="50.61" width="3.75" shape="892.30,1136.60,20.00 857.73,1099.64,20.00"/>
  </edge>
  <edge id=":6_0" function="internal">
    <lane id=":6_0_0" index="0" disallow="pedestrian tram rail_urban rail rail_electric rail_fast ship" speed="18.06" length="59.49" width="3.75" shape="383.92,571.23,20.00 374.67,559.53,20.00 362.71,545.31,20.00 351.76,532.70,20.00 345.51,525.83,20.00"/>
  </edge>
  <edge id=":6_1" function="internal">
    <lane id=":6_1_0" index="0" disallow="pedestrian tram rail_urban rail rail_electric rail_fast ship" speed="22.22" length="59.72" width="3.75" shape="383.92,571.23,20.00 348.78,522.90,20.00"/>
    <lane id=":6_1_1" index="1" disallow="pedestrian tram rail_urban rail rail_electric rail_fast ship" speed="22.22" length="59.72" width="3.75" shape="386.94,569.01,20.00 351.82,520.71,20.00"/>
    <lane id=":6_1_2" index="2" disallow="pedestrian tram rail_urban rail rail_electric rail_fast ship" speed="22.22" length="59.72" width="3.75" shape="389.96,566.79,20.00 354.86,518.52,20.00"/>
  </edge>
  <edge id=":7_0" function="internal">
    <lane id=":7_0_0" index="0" disallow="pedestrian tram rail_urban rail rail_electric rail_fast ship" speed="16.67" length="60.31" width="3.75" shape="170.48,866.96,0.00 162.89,872.56,0.00 149.46,882.96,0.00 134.75,894.76,0.00 123.34,904.55"/>
  </edge>
  <edge id=":7_1" function="internal">
    <lane id=":7_1_0" index="0" disallow="pedestrian tram rail_urban rail rail_electric rail_fast ship" speed="22.22" length="59.91" width="3.75" shape="167.30,863.87 123.34,904.55"/>
    <lane id=":7_1_1" index="1" disallow="pedestrian tram rail_urban rail rail_electric rail_fast ship" speed="22.22" length="59.91" width="3.75" shape="164.76,861.11 120.79,901.81"/>
    <lane id=":7_1_2" index="2" disallow="pedestrian tram rail_urban rail rail_electric rail_fast ship" speed="22.22" length="59.91" width="3.75" shape="162.21,858.35 118.24,899.06"/>
  </edge>
  <edge id=":8_0" function="internal">
    <lane id=":8_0_0" index="0" disallow="pedestrian tram rail_urban rail rail_electric rail_fast ship" speed="19.44" length="104.60" width="3.75" shape="118.53,199.61,20.00 63.01,110.96,20.00"/>
  </edge>
  <edge id=":8_1" function="internal">
    <lane id=":8_1_0" index="0" disallow="pedestrian tram rail_urban rail rail_electric rail_fast ship" speed="22.22" length="104.38" width="3.75" shape="121.82,197.20,20.00 63.01,110.96,20.00"/>
    <lane id=":8_1_1" index="1" disallow="pedestrian tram rail_urban rail rail_electric rail_fast ship" speed="22.22" length="104.38" width="3.75" shape="124.92,195.08,20.00 66.10,108.85,20.00"/>
    <lane id=":8_1_2" index="2" disallow="pedestrian tram rail_urban rail rail_electric rail_fast ship" speed="22.22" length="104.38" width="3.75" shape="128.02,192.96,20.00 69.20,106.74,20.00"/>
  </edge>
  <edge id=":9_0" function="internal">
    <lane id=":9_0_0" index="0" disallow="pedestrian tram rail_urban rail rail_electric rail_fast ship" speed="16.67" length="13.97" width="3.75" shape="270.07,668.08,5.70 270.50,664.52,5.72 270.83,661.14,5.73 271.07,657.75,5.75 271.24,654.17,5.76"/>
  </edge>
  <edge id=":9_1" function="internal">
    <lane id=":9_1_0" index="0" disallow="pedestrian tram rail_urban rail rail_electric rail_fast ship" speed="14.38" length="15.83" width="3.75" shape="270.07,668.08,5.70 270.92,664.29,5.72 272.43,660.54,5.74 274.51,657.08,5.75 277.06,654.17,5.77"/>
  </edge>
  <edge id=":9.8_0" function="internal">
    <lane id=":9.8_0_0" index="0" disallow="pedestrian tram rail_urban rail rail_electric rail_fast ship" speed="22.22" length="0.30" width="3.75" shape="461.83,582.95 462.07,582.77"/>
    <lane id=":9.8_0_1" index="1" disallow="pedestrian tram rail_urban rail rail_electric rail_fast ship" speed="22.22" length="0.30" width="3.75" shape="464.03,585.98 464.28,585.81"/>
    <lane id=":9.8_0_2" index="2" disallow="pedestrian tram rail_urban rail rail_electric rail_fast ship" speed="22.22" length="0.30" width="3.75" shape="466.24,589.01 466.48,588.84"/>
  </edge>
  <edge id="-0" from="0.begin" to="0" priority="1" type="driving" shape="1102.73,202.87 1101.76,203.47 1100.77,204.09 1099.75,204.71 1098.70,205.35 1097.63,206.01 1096.53,206.68 1095.41,207.36 1094.27,208.05 1093.10,208.76 1091.91,209.48 1090.69,210.22 1089.46,210.97 1088.19,211.73 1086.91,212.51 1085.60,213.30 1084.27,214.10 1082.91,214.91 1081.53,215.74 1080.13,216.58 1078.71,217.43 1077.27,218.29 1075.80,219.17 1074.31,220.06 1072.80,220.96 1071.27,221.87 1069.72,222.80 1068.15,223.74 1066.55,224.69 1064.94,225.65 1063.30,226.62 1061.65,227.61 1059.97,228.60 1058.27,229.61 1056.56,230.63 1054.82,231.66 1053.07,232.70 1051.29,233.75 1049.50,234.82 1047.68,235.89 1045.85,236.98 1044.00,238.07 1042.13,239.18 1040.24,240.30 1038.34,241.42 1036.41,242.56 1034.47,243.71 1032.51,244.87 1030.53,246.04 1028.54,247.22 1026.52,248.41 1024.49,249.61 1022.45,250.82 1020.38,252.03 1018.30,253.26 1016.21,254.50 1014.09,255.75 1011.97,257.00 1009.82,258.27 1007.66,259.54 1005.48,260.83 1003.29,262.12 1001.09,263.42 998.86,264.74 996.63,266.06 994.38,267.38 992.11,268.72 989.83,270.07 987.53,271.42">
    <lane id="-0_0" index="0" disallow="pedestrian tram rail_urban rail rail_electric rail_fast ship" speed="22.22" length="130.16" width="3.75" shape="1107.65,210.85 1106.68,211.45 1105.67,212.07 1104.65,212.70 1103.59,213.35 1102.52,214.01 1101.41,214.68 1100.29,215.37 1099.14,216.06 1097.96,216.78 1096.77,217.50 1095.55,218.24 1094.30,218.99 1093.04,219.76 1091.74,220.54 1090.43,221.33 1089.10,222.13 1087.74,222.95 1086.36,223.78 1084.95,224.62 1083.53,225.47 1082.08,226.34 1080.61,227.22 1079.12,228.11 1077.61,229.01 1076.08,229.93 1074.52,230.85 1072.95,231.79 1071.35,232.74 1069.73,233.70 1068.10,234.68 1066.44,235.66 1064.76,236.66 1063.06,237.67 1061.34,238.69 1059.61,239.72 1057.85,240.76 1056.07,241.82 1054.28,242.88 1052.46,243.96 1050.63,245.04 1048.78,246.14 1046.91,247.25 1045.02,248.36 1043.11,249.49 1041.18,250.63 1039.24,251.78 1037.28,252.94 1035.30,254.11 1033.30,255.29 1031.29,256.48 1029.26,257.68 1027.21,258.89 1025.15,260.11 1023.07,261.33 1020.97,262.57 1018.86,263.82 1016.73,265.08 1014.59,266.34 1012.43,267.62 1010.25,268.90 1008.06,270.20 1005.85,271.50 1003.63,272.81 1001.39,274.13 999.14,275.46 996.87,276.80 995.75,277.46" type="driving"/>
    <lane id="-0_1" index="1" disallow="pedestrian tram rail_urban rail rail_electric rail_fast ship" speed="22.22" length="130.16" width="3.75" shape="1105.68,207.66 1104.71,208.26 1103.71,208.88 1102.69,209.51 1101.64,210.15 1100.56,210.81 1099.46,211.48 1098.34,212.16 1097.19,212.86 1096.02,213.57 1094.82,214.30 1093.61,215.03 1092.36,215.78 1091.10,216.55 1089.81,217.32 1088.50,218.11 1087.16,218.92 1085.81,219.73 1084.43,220.56 1083.03,221.40 1081.60,222.25 1080.16,223.12 1078.69,224.00 1077.20,224.89 1075.69,225.79 1074.15,226.70 1072.60,227.63 1071.03,228.57 1069.43,229.52 1067.82,230.48 1066.18,231.46 1064.52,232.44 1062.84,233.44 1061.15,234.45 1059.43,235.47 1057.69,236.50 1055.94,237.54 1054.16,238.59 1052.36,239.66 1050.55,240.73 1048.72,241.82 1046.87,242.91 1045.00,244.02 1043.11,245.14 1041.20,246.27 1039.27,247.40 1037.33,248.55 1035.37,249.71 1033.39,250.88 1031.40,252.06 1029.38,253.25 1027.35,254.45 1025.31,255.66 1023.24,256.88 1021.16,258.11 1019.07,259.34 1016.95,260.59 1014.82,261.85 1012.68,263.11 1010.52,264.39 1008.34,265.67 1006.15,266.97 1003.94,268.27 1001.72,269.58 999.49,270.90 997.23,272.23 994.97,273.57 993.84,274.23" type="driving"/>
    <lane id="-0_2" index="2" disallow="pedestrian tram rail_urban rail rail_electric rail_fast ship" speed="22.22" length="130.16" width="3.75" shape="1103.72,204.47 1102.75,205.07 1101.75,205.68 1100.73,206.31 1099.68,206.95 1098.61,207.61 1097.51,208.28 1096.39,208.96 1095.24,209.66 1094.07,210.36 1092.88,211.09 1091.66,211.82 1090.42,212.57 1089.16,213.34 1087.87,214.11 1086.56,214.90 1085.23,215.70 1083.88,216.52 1082.50,217.34 1081.10,218.18 1079.67,219.04 1078.23,219.90 1076.76,220.78 1075.28,221.67 1073.77,222.57 1072.23,223.48 1070.68,224.41 1069.11,225.35 1067.51,226.30 1065.90,227.26 1064.26,228.23 1062.61,229.22 1060.93,230.21 1059.23,231.22 1057.52,232.24 1055.78,233.27 1054.02,234.31 1052.25,235.37 1050.45,236.43 1048.64,237.50 1046.81,238.59 1044.96,239.69 1043.09,240.79 1041.20,241.91 1039.29,243.04 1037.37,244.18 1035.42,245.33 1033.46,246.48 1031.48,247.65 1029.49,248.83 1027.48,250.02 1025.45,251.22 1023.40,252.43 1021.34,253.65 1019.26,254.88 1017.16,256.11 1015.05,257.36 1012.92,258.62 1010.77,259.88 1008.61,261.16 1006.44,262.44 1004.25,263.74 1002.04,265.04 999.82,266.35 997.58,267.67 995.33,269.00 993.06,270.34 991.94,271.00" type="driving"/>
  </edge>