<?xml version="1.0" encoding="UTF-8"?>
<!--generated on 2022-09-05 18:33:38 by generate_rou.py-->
<routes xmlns:xsi="http://www.w3.org/2001/XMLSchema-instance" xsi:noNamespaceSchemaLocation="http://sumo.dlr.de/xsd/routes_file.xsd">
    <vTypeDistribution id="fastlane">
        <vType accel="3.000000" decel="3.000000" emergencyDecel="15" id="fast1" laneChangeModel="SL2015" lcAccelLat="0.5" lcCooperative="1" lcPushy="0" lcSigma="0.1" lcTimeToImpatience="1.2" length="4.3" maxSpeed="30.00" maxSpeedLat="1" minGap="2.5" minGapLat="1" sigma="0" speedFactor="normc(1,0.1,0.30,3.00)" tau="5" vClass="passenger" width="2.2"/>
        <vType accel="5.000000" decel="5.000000" emergencyDecel="15" id="fast2" laneChangeModel="SL2015" lcAccelLat="0.5" lcCooperative="1" lcPushy="0" lcSigma="0.2" lcTimeToImpatience="1.2" length="4.3" maxSpeed="33.0000" maxSpeedLat="1" minGap="2.5" minGapLat="1" sigma="0" speedFactor="normc(1,0.1,0.30,3.0)" tau="5" vClass="passenger" width="2.2"/>
    </vTypeDistribution>
    <vTypeDistribution id="middlelane">
        <vType accel="5.000000" decel="5.000000" emergencyDecel="15" id="middle_backup" laneChangeModel="SL2015" lcAccelLat="0.5" lcCooperative="1" lcPushy="0" lcSigma="0.2" lcTimeToImpatience="1.2" length="4.3" maxSpeed="26.00" maxSpeedLat="1" minGap="2.5" minGapLat="1" sigma="0" speedFactor="normc(1,0.1,0.30,2.00)" tau="5" vClass="passenger" width="2.2"/>
        <vType accel="5.000000" decel="5.000000" emergencyDecel="15" id="middle1" laneChangeModel="SL2015" lcCooperative="0" lcSpeedGain="0" length="4.3" maxSpeed="26.00" minGap="2.5" sigma="0" tau="5" vClass="passenger" width="2.2"/>
        <vType accel="5.000000" decel="5.000000" emergencyDecel="15" id="middle2" laneChangeModel="SL2015" lcAccelLat="0.5" lcCooperative="1" lcPushy="0" lcSigma="0" lcTimeToImpatience="1.2" length="9.6" maxSpeed="28.00" maxSpeedLat="1" minGap="2.5" minGapLat="1" sigma="0" speedFactor="normc(1,0.1,0.30,2.00)" tau="5" vClass="truck" width="3"/>
    </vTypeDistribution>
    <vTypeDistribution id="slowlane">
        <vType accel="5.000000" decel="5.000000" emergencyDecel="15" id="slow1" laneChangeModel="SL2015" lcAccelLat="0.5" lcCooperative="1" lcPushy="0" lcSigma="0.1" lcTimeToImpatience="1.2" length="4.3" maxSpeed="22.00" maxSpeedLat="1" minGap="2.0" minGapLat="1" sigma="0" speedFactor="normc(1,0.1,0.30,2.00)" tau="5" vClass="passenger" width="2.2"/>
        <vType accel="3.000000" decel="3.000000" emergencyDecel="15" id="slow2" laneChangeModel="SL2015" lcAccelLat="0.5" lcCooperative="1" lcPushy="0" lcSigma="0" lcTimeToImpatience="1.2" length="17.5" maxSpeed="20.00" maxSpeedLat="1" minGap="2.5" minGapLat="1" sigma="0" speedFactor="normc(1,0.1,0.20,3.00)" tau="5" vClass="truck" width="2.8"/>
    </vTypeDistribution>
    <flow begin="0" color="0.84,0.91,0.11" departLane="random" departPos="0" departSpeed="0" id="-0_-15" probability="0.05" type="middle1">
        <route edges="-0 -30 -31 -15"/>
    </flow>
    <flow begin="0" color="0.63,0.05,0.39" departLane="random" departPos="0" departSpeed="0" id="-0_-20" probability="0.05" type="middle1">
        <route edges="-0 -1 -2 -32 -33 -18 -19 -20"/>
    </flow>
    <flow begin="0" color="0.77,0.3,0.26" departLane="random" departPos="0" departSpeed="0" id="-0_-5" probability="0.05" type="middle1">
        <route edges="-0 -1 -2 -3 -4 -5"/>
    </flow>
    <flow begin="0" color="0.11,0.05,0.02" departLane="random" departPos="0" departSpeed="0" id="-11_-10" probability="0.05" type="middle1">
        <route edges="-11 -27 -28 -29 -10"/>
    </flow>
    <flow begin="0" color="0.58,0.06,0.28" departLane="random" departPos="0" departSpeed="0" id="-11_-15" probability="0.05" type="middle1">
        <route edges="-11 -12 -13 -14 -15"/>
    </flow>
    <flow begin="0" color="0.38,0.1,0.96" departLane="random" departPos="0" departSpeed="0" id="-11_-5" probability="0.05" type="middle1">
        <route edges="-11 -27 -38 -39 -4 -5"/>
    </flow>
    <flow begin="0" color="0.18,0.72,0.03" departLane="random" departPos="0" departSpeed="0" id="-16_-10" probability="0.05" type="middle1">
        <route edges="-16 -21 -34 -35 -9 -10"/>
    </flow>
    <flow begin="0" color="0.8,0.9,0.06" departLane="random" departPos="0" departSpeed="0" id="-16_-20" probability="0.05" type="middle1">
        <route edges="-16 -17 -18 -19 -20"/>
    </flow>
    <flow begin="0" color="0.1,0.75,0.01" departLane="random" departPos="0" departSpeed="0" id="-16_-5" probability="0.05" type="middle1">
        <route edges="-16 -21 -22 -23 -5"/>
    </flow>
    <flow begin="0" color="0.51,0.16,0.66" departLane="random" departPos="0" departSpeed="0" id="-6_-10" probability="0.05" type="middle1">
        <route edges="-6 -7 -8 -9 -10"/>
    </flow>
    <flow begin="0" color="0.47,0.37,0.92" departLane="random" departPos="0" departSpeed="0" id="-6_-15" probability="0.05" type="middle1">
        <route edges="-6 -24 -36 -37 -13 -14 -15"/>
    </flow>
    <flow begin="0" color="0.55,0.34,0.1" departLane="random" departPos="0" departSpeed="0" id="-6_-20" probability="0.05" type="middle1">
        <route edges="-6 -24 -25 -26 -20"/>
    </flow>
</routes>
