<?xml version='1.0' encoding='UTF-8'?>
<!-- generated on 2022-09-25 13:28:18 by Eclipse SUMO netconvert Version 1.13.0
<configuration xmlns:xsi="http://www.w3.org/2001/XMLSchema-instance" xsi:noNamespaceSchemaLocation="http://sumo.dlr.de/xsd/netconvertConfiguration.xsd">

    <input>
        <opendrive-files value="map_new_new\21\22\22.xodr"/>
    </input>

    <output>
        <output-file value="C:\Users\LinGe\AppData\Local\Temp\tmpa_gj_swi\22.net.xml"/>
    </output>

    <processing>
        <geometry.max-grade.fix value="false"/>
    </processing>

    <tls_building>
        <tls.left-green.time value="0"/>
    </tls_building>

    <junctions>
        <rectangular-lane-cut value="true"/>
    </junctions>

    <report>
        <aggregate-warnings value="5"/>
    </report>

</configuration>
-->
<net xmlns:xsi="http://www.w3.org/2001/XMLSchema-instance" version="1.9" junctionCornerDetail="5" rectangularLaneCut="true" limitTurnSpeed="5.50" xsi:noNamespaceSchemaLocation="http://sumo.dlr.de/xsd/net_file.xsd">
  <location netOffset="197.48,101.26" convBoundary="0.00,0.00,1298.66,1302.51" origBoundary="-197.48,-101.26,1101.18,1201.26" projParameter="!"/>
  <type id="bidirectional" priority="1" speed="1.39" disallow="pedestrian tram rail_urban rail rail_electric rail_fast ship" width="3.65"/>
  <type id="border" priority="0" speed="1.39" disallow="all" discard="1" width="0.10"/>
  <type id="driving" priority="1" speed="13.89" disallow="pedestrian tram rail_urban rail rail_electric rail_fast ship" width="3.65"/>
  <type id="entry" priority="1" speed="22.22" disallow="pedestrian tram rail_urban rail rail_electric rail_fast ship" width="3.65"/>
  <type id="exit" priority="1" speed="22.22" disallow="pedestrian tram rail_urban rail rail_electric rail_fast ship" width="3.65"/>
  <type id="median" priority="0" speed="1.39" disallow="all" discard="1" width="0.10"/>
  <type id="mwyEntry" priority="1" speed="22.22" allow="private emergency authority army vip passenger hov taxi bus coach delivery truck trailer motorcycle evehicle custom1 custom2" width="3.65"/>
  <type id="mwyExit" priority="1" speed="22.22" allow="private emergency authority army vip passenger hov taxi bus coach delivery truck trailer motorcycle evehicle custom1 custom2" width="3.65"/>
  <type id="none" priority="0" speed="1.39" disallow="all" discard="1" width="1.00"/>
  <type id="offRamp" priority="1" speed="22.22" allow="private emergency authority army vip passenger hov taxi bus coach delivery truck trailer motorcycle evehicle custom1 custom2" width="3.65"/>
  <type id="onRamp" priority="1" speed="22.22" allow="private emergency authority army vip passenger hov taxi bus coach delivery truck trailer motorcycle evehicle custom1 custom2" width="3.65"/>
  <type id="parking" priority="1" speed="1.39" disallow="pedestrian tram rail_urban rail rail_electric rail_fast ship" width="2.50"/>
  <type id="rail" priority="3" speed="33.33" allow="rail_urban rail rail_electric rail_fast" width="3.65"/>
  <type id="restricted" priority="0" speed="13.89" disallow="all" width="3.65"/>
  <type id="roadWorks" priority="0" speed="1.39" allow="authority" width="3.65"/>
  <type id="shoulder" priority="0" speed="1.39" disallow="all" discard="1" width="1.00"/>
  <type id="special1" priority="1" speed="22.22" allow="custom1" discard="1" width="3.65"/>
  <type id="special2" priority="1" speed="22.22" allow="custom2" discard="1" width="3.65"/>
  <type id="special3" priority="1" speed="22.22" allow="custom1 custom2" discard="1" width="3.65"/>
  <type id="stop" priority="1" speed="13.89" disallow="pedestrian tram rail_urban rail rail_electric rail_fast ship" width="3.65"/>
  <type id="tram" priority="2" speed="13.89" allow="tram" width="3.65"/>
  <edge id=":0_0" function="internal">
    <lane id=":0_0_0" index="0" disallow="pedestrian tram rail_urban rail rail_electric rail_fast ship" speed="20.83" length="45.87" width="3.75" shape="1145.96,295.18 1134.96,301.68,0.05 1123.39,309.36,0.10 1113.58,316.32,0.14 1107.87,320.66,0.17"/>
  </edge>
  <edge id=":0_1" function="internal">
    <lane id=":0_1_0" index="0" disallow="pedestrian tram rail_urban rail rail_electric rail_fast ship" speed="22.22" length="46.02" width="3.75" shape="1145.96,295.18 1105.43,316.91"/>
    <lane id=":0_1_1" index="1" disallow="pedestrian tram rail_urban rail rail_electric rail_fast ship" speed="22.22" length="46.02" width="3.75" shape="1144.20,291.86 1103.64,313.61"/>
    <lane id=":0_1_2" index="2" disallow="pedestrian tram rail_urban rail rail_electric rail_fast ship" speed="22.22" length="46.02" width="3.75" shape="1142.43,288.55 1101.86,310.31"/>
  </edge>
  <edge id=":1_0" function="internal">
    <lane id=":1_0_0" index="0" disallow="pedestrian tram rail_urban rail rail_electric rail_fast ship" speed="20.83" length="110.72" width="3.75" shape="617.62,654.67 600.49,669.90 573.74,694.26 548.48,717.48 535.82,729.28"/>
  </edge>
  <edge id=":1_1" function="internal">
    <lane id=":1_1_0" index="0" disallow="pedestrian tram rail_urban rail rail_electric rail_fast ship" speed="22.22" length="110.76" width="3.75" shape="617.62,654.67 533.13,726.24"/>
    <lane id=":1_1_1" index="1" disallow="pedestrian tram rail_urban rail rail_electric rail_fast ship" speed="22.22" length="110.76" width="3.75" shape="615.21,651.80 530.69,723.39"/>
    <lane id=":1_1_2" index="2" disallow="pedestrian tram rail_urban rail rail_electric rail_fast ship" speed="22.22" length="110.76" width="3.75" shape="612.80,648.92 528.26,720.53"/>
  </edge>
  <edge id=":10_0" function="internal">
    <lane id=":10_0_0" index="0" disallow="pedestrian tram rail_urban rail rail_electric rail_fast ship" speed="15.28" length="34.26" width="3.75" shape="1175.42,248.54,0.04 1180.62,247.16,0.04 1188.34,244.88,0.03 1197.64,241.54,0.01 1207.58,236.96"/>
  </edge>
  <edge id=":10_1" function="internal">
    <lane id=":10_1_0" index="0" disallow="pedestrian tram rail_urban rail rail_electric rail_fast ship" speed="22.22" length="33.57" width="3.75" shape="1177.87,252.60 1207.58,236.96"/>
    <lane id=":10_1_1" index="1" disallow="pedestrian tram rail_urban rail rail_electric rail_fast ship" speed="22.22" length="33.57" width="3.75" shape="1179.62,255.92 1209.33,240.28"/>
    <lane id=":10_1_2" index="2" disallow="pedestrian tram rail_urban rail rail_electric rail_fast ship" speed="22.22" length="33.57" width="3.75" shape="1181.37,259.24 1211.08,243.60"/>
  </edge>
  <edge id=":11_0" function="internal">
    <lane id=":11_0_0" index="0" disallow="pedestrian tram rail_urban rail rail_electric rail_fast ship" speed="20.83" length="56.30" width="3.75" shape="979.44,1007.50,20.00 984.76,1014.51,20.00 994.50,1026.71,20.00 1005.68,1040.15,20.00 1015.31,1050.87,20.00"/>
  </edge>
  <edge id=":11_1" function="internal">
    <lane id=":11_1_0" index="0" disallow="pedestrian tram rail_urban rail rail_electric rail_fast ship" speed="22.22" length="55.88" width="3.75" shape="976.41,1010.80,20.00 1015.31,1050.87,20.00"/>
    <lane id=":11_1_1" index="1" disallow="pedestrian tram rail_urban rail rail_electric rail_fast ship" speed="22.22" length="55.88" width="3.75" shape="973.71,1013.40,20.00 1012.63,1053.49,20.00"/>
    <lane id=":11_1_2" index="2" disallow="pedestrian tram rail_urban rail rail_electric rail_fast ship" speed="22.22" length="55.88" width="3.75" shape="971.01,1016.00,20.00 1009.94,1056.11,20.00"/>
  </edge>
  <edge id=":12_0" function="internal">
    <lane id=":12_0_0" index="0" disallow="pedestrian tram rail_urban rail rail_electric rail_fast ship" speed="20.83" length="62.73" width="3.75" shape="809.14,870.30,19.92 803.53,862.26,19.93 793.10,847.81,19.95 781.41,831.97,19.98 771.98,819.77,20.00"/>
  </edge>
  <edge id=":12_1" function="internal">
    <lane id=":12_1_0" index="0" disallow="pedestrian tram rail_urban rail rail_electric rail_fast ship" speed="22.22" length="62.27" width="3.75" shape="812.36,867.34,20.00 771.98,819.77,20.00"/>
    <lane id=":12_1_1" index="1" disallow="pedestrian tram rail_urban rail rail_electric rail_fast ship" speed="22.22" length="62.27" width="3.75" shape="815.18,864.87,20.00 774.89,817.40,20.00"/>
    <lane id=":12_1_2" index="2" disallow="pedestrian tram rail_urban rail rail_electric rail_fast ship" speed="22.22" length="62.27" width="3.75" shape="818.00,862.40,20.00 777.79,815.03,20.00"/>
  </edge>
  <edge id=":13_0" function="internal">
    <lane id=":13_0_0" index="0" disallow="pedestrian tram rail_urban rail rail_electric rail_fast ship" speed="19.44" length="87.10" width="3.75" shape="534.13,690.02,0.13 545.06,681.91,0.11 565.94,666.09,0.07 588.19,648.99,0.03 603.26,637.04"/>
  </edge>
  <edge id=":13_1" function="internal">
    <lane id=":13_1_0" index="0" disallow="pedestrian tram rail_urban rail rail_electric rail_fast ship" speed="22.22" length="86.81" width="3.75" shape="536.95,693.11 603.26,637.04"/>
    <lane id=":13_1_1" index="1" disallow="pedestrian tram rail_urban rail rail_electric rail_fast ship" speed="22.22" length="86.81" width="3.75" shape="539.38,695.96 605.67,639.91"/>
    <lane id=":13_1_2" index="2" disallow="pedestrian tram rail_urban rail rail_electric rail_fast ship" speed="22.22" length="86.81" width="3.75" shape="541.81,698.82 608.08,642.78"/>
  </edge>
  <edge id=":14_0" function="internal">
    <lane id=":14_0_0" index="0" disallow="pedestrian tram rail_urban rail rail_electric rail_fast ship" speed="18.06" length="26.21" width="3.75" shape="779.59,531.19 775.20,531.55 769.64,533.13 763.12,536.24 755.86,541.21"/>
  </edge>
  <edge id=":14_1" function="internal">
    <lane id=":14_1_0" index="0" disallow="pedestrian tram rail_urban rail rail_electric rail_fast ship" speed="22.22" length="24.66" width="3.75" shape="775.21,525.96 755.86,541.21"/>
    <lane id=":14_1_1" index="1" disallow="pedestrian tram rail_urban rail rail_electric rail_fast ship" speed="22.22" length="24.66" width="3.75" shape="772.90,523.00 753.53,538.27"/>
    <lane id=":14_1_2" index="2" disallow="pedestrian tram rail_urban rail rail_electric rail_fast ship" speed="22.22" length="24.66" width="3.75" shape="770.59,520.05 751.20,535.33"/>
  </edge>
  <edge id=":14.13_0" function="internal">
    <lane id=":14.13_0_0" index="0" disallow="pedestrian tram rail_urban rail rail_electric rail_fast ship" speed="22.22" length="0.30" width="3.75" shape="784.69,799.33,20.00 784.88,799.56,20.00"/>
    <lane id=":14.13_0_1" index="1" disallow="pedestrian tram rail_urban rail rail_electric rail_fast ship" speed="22.22" length="0.30" width="3.75" shape="781.77,801.69,20.00 781.96,801.92,20.00"/>
    <lane id=":14.13_0_2" index="2" disallow="pedestrian tram rail_urban rail rail_electric rail_fast ship" speed="22.22" length="0.30" width="3.75" shape="778.85,804.04,20.00 779.05,804.28,20.00"/>
  </edge>
  <edge id=":15_0" function="internal">
    <lane id=":15_0_0" index="0" disallow="pedestrian tram rail_urban rail rail_electric rail_fast ship" speed="19.44" length="17.69" width="3.75" shape="917.52,700.30,12.00 916.17,717.94,12.05"/>
  </edge>
  <edge id=":15_1" function="internal">
    <lane id=":15_1_0" index="0" disallow="pedestrian tram rail_urban rail rail_electric rail_fast ship" speed="14.58" length="17.26" width="3.75" shape="913.23,701.06,11.99 914.58,704.93,12.00 915.57,709.35,12.02 916.13,713.84,12.03 916.17,717.94,12.05"/>
  </edge>
  <edge id=":19.18_0" function="internal">
    <lane id=":19.18_0_0" index="0" disallow="pedestrian tram rail_urban rail rail_electric rail_fast ship" speed="22.22" length="0.30" width="3.75" shape="767.18,813.86,20.00 766.99,813.63,20.00"/>
    <lane id=":19.18_0_1" index="1" disallow="pedestrian tram rail_urban rail rail_electric rail_fast ship" speed="22.22" length="0.30" width="3.75" shape="770.10,811.51,20.00 769.91,811.27,20.00"/>
    <lane id=":19.18_0_2" index="2" disallow="pedestrian tram rail_urban rail rail_electric rail_fast ship" speed="22.22" length="0.30" width="3.75" shape="773.01,809.15,20.00 772.83,808.92,20.00"/>
  </edge>
  <edge id=":2_0" function="internal">
    <lane id=":2_0_0" index="0" disallow="pedestrian tram rail_urban rail rail_electric rail_fast ship" speed="15.97" length="107.92" width="3.75" shape="284.72,910.82 301.31,895.64 327.02,871.57 351.26,848.67 363.43,837.00"/>
  </edge>
  <edge id=":2_1" function="internal">
    <lane id=":2_1_0" index="0" disallow="pedestrian tram rail_urban rail rail_electric rail_fast ship" speed="22.22" length="108.02" width="3.75" shape="284.72,910.82 366.26,839.96"/>
    <lane id=":2_1_1" index="1" disallow="pedestrian tram rail_urban rail rail_electric rail_fast ship" speed="22.22" length="108.02" width="3.75" shape="287.18,913.65 368.72,842.79"/>
    <lane id=":2_1_2" index="2" disallow="pedestrian tram rail_urban rail rail_electric rail_fast ship" speed="22.22" length="108.02" width="3.75" shape="289.64,916.48 371.18,845.62"/>
  </edge>
  <edge id=":2.1_0" function="internal">
    <lane id=":2.1_0_0" index="0" disallow="pedestrian tram rail_urban rail rail_electric rail_fast ship" speed="22.22" length="0.30" width="3.75" shape="827.99,485.93 827.75,486.10"/>
    <lane id=":2.1_0_1" index="1" disallow="pedestrian tram rail_urban rail rail_electric rail_fast ship" speed="22.22" length="0.30" width="3.75" shape="825.78,482.89 825.54,483.07"/>
    <lane id=":2.1_0_2" index="2" disallow="pedestrian tram rail_urban rail rail_electric rail_fast ship" speed="22.22" length="0.30" width="3.75" shape="823.58,479.86 823.33,480.04"/>
  </edge>
  <edge id=":23.22_0" function="internal">
    <lane id=":23.22_0_0" index="0" disallow="pedestrian tram rail_urban rail rail_electric rail_fast ship" speed="11.11" length="0.30" width="3.75" shape="611.08,843.49,7.60 610.79,843.42,7.59"/>
  </edge>
  <edge id=":26.25_0" function="internal">
    <lane id=":26.25_0_0" index="0" disallow="pedestrian tram rail_urban rail rail_electric rail_fast ship" speed="9.72" length="0.30" width="3.75" shape="475.70,601.19,9.01 475.71,600.89,9.02"/>
  </edge>
  <edge id=":28.27_0" function="internal">
    <lane id=":28.27_0_0" index="0" disallow="pedestrian tram rail_urban rail rail_electric rail_fast ship" speed="8.33" length="0.29" width="3.75" shape="556.94,341.58,13.87 557.23,341.60,13.86"/>
  </edge>
  <edge id=":3_0" function="internal">
    <lane id=":3_0_0" index="0" disallow="pedestrian tram rail_urban rail rail_electric rail_fast ship" speed="15.28" length="82.79" width="3.75" shape="330.27,170.19,20.00 341.40,185.03,20.00 357.74,206.00,20.00 373.09,225.38,20.00 381.24,235.42,20.00"/>
  </edge>
  <edge id=":3_1" function="internal">
    <lane id=":3_1_0" index="0" disallow="pedestrian tram rail_urban rail rail_electric rail_fast ship" speed="22.22" length="82.91" width="3.75" shape="330.27,170.19,20.00 377.95,238.01,20.00"/>
    <lane id=":3_1_1" index="1" disallow="pedestrian tram rail_urban rail rail_electric rail_fast ship" speed="22.22" length="82.91" width="3.75" shape="327.20,172.35,20.00 374.89,240.17,20.00"/>
    <lane id=":3_1_2" index="2" disallow="pedestrian tram rail_urban rail rail_electric rail_fast ship" speed="22.22" length="82.91" width="3.75" shape="324.13,174.50,20.00 371.82,242.32,20.00"/>
  </edge>
  <edge id=":30.29_0" function="internal">
    <lane id=":30.29_0_0" index="0" disallow="pedestrian tram rail_urban rail rail_electric rail_fast ship" speed="19.44" length="0.30" width="3.75" shape="926.17,633.97,9.66 926.12,634.26,9.66"/>
  </edge>
  <edge id=":33.32_0" function="internal">
    <lane id=":33.32_0_0" index="0" disallow="pedestrian tram rail_urban rail rail_electric rail_fast ship" speed="19.44" length="0.30" width="3.75" shape="444.07,1208.86,8.83 444.28,1209.07,8.83"/>
  </edge>
  <edge id=":35.34_0" function="internal">
    <lane id=":35.34_0_0" index="0" disallow="pedestrian tram rail_urban rail rail_electric rail_fast ship" speed="16.67" length="0.30" width="3.75" shape="98.90,380.93,11.98 98.68,381.12,11.97"/>
  </edge>
  <edge id=":37.36_0" function="internal">
    <lane id=":37.36_0_0" index="0" disallow="pedestrian tram rail_urban rail rail_electric rail_fast ship" speed="13.89" length="0.28" width="3.75" shape="837.53,644.55,9.85 837.57,644.27,9.82"/>
  </edge>
  <edge id=":39.38_0" function="internal">
    <lane id=":39.38_0_0" index="0" disallow="pedestrian tram rail_urban rail rail_electric rail_fast ship" speed="9.72" length="0.28" width="3.75" shape="707.09,559.99,9.66 707.37,560.02,9.66"/>
  </edge>
  <edge id=":4_0" function="internal">
    <lane id=":4_0_0" index="0" disallow="pedestrian tram rail_urban rail rail_electric rail_fast ship" speed="18.06" length="23.95" width="3.75" shape="730.56,729.24,20.00 735.73,735.35,20.00 740.56,739.70,20.00 744.94,742.58,20.00 748.79,744.29,20.00"/>
  </edge>
  <edge id=":4_1" function="internal">
    <lane id=":4_1_0" index="0" disallow="pedestrian tram rail_urban rail rail_electric rail_fast ship" speed="22.22" length="24.59" width="3.75" shape="730.56,729.24,20.00 745.36,748.85,20.00"/>
    <lane id=":4_1_1" index="1" disallow="pedestrian tram rail_urban rail rail_electric rail_fast ship" speed="22.22" length="24.59" width="3.75" shape="727.56,731.50,20.00 742.38,751.12,20.00"/>
    <lane id=":4_1_2" index="2" disallow="pedestrian tram rail_urban rail rail_electric rail_fast ship" speed="22.22" length="24.59" width="3.75" shape="724.56,733.75,20.00 739.40,753.39,20.00"/>
  </edge>
  <edge id=":5_0" function="internal">
    <lane id=":5_0_0" index="0" disallow="pedestrian tram rail_urban rail rail_electric rail_fast ship" speed="16.67" length="123.01" width="3.75" shape="1088.66,1157.57,20.00 999.43,1072.90,20.00"/>
  </edge>
  <edge id=":5_1" function="internal">
    <lane id=":5_1_0" index="0" disallow="pedestrian tram rail_urban rail rail_electric rail_fast ship" speed="22.22" length="123.13" width="3.75" shape="1088.66,1157.57,20.00 1002.13,1069.92,20.00"/>
    <lane id=":5_1_1" index="1" disallow="pedestrian tram rail_urban rail rail_electric rail_fast ship" speed="22.22" length="123.13" width="3.75" shape="1091.32,1154.93,20.00 1004.82,1067.30,20.00"/>
    <lane id=":5_1_2" index="2" disallow="pedestrian tram rail_urban rail rail_electric rail_fast ship" speed="22.22" length="123.13" width="3.75" shape="1093.97,1152.28,20.00 1007.50,1064.68,20.00"/>
  </edge>
  <edge id=":6_0" function="internal">
    <lane id=":6_0_0" index="0" disallow="pedestrian tram rail_urban rail rail_electric rail_fast ship" speed="19.44" length="111.38" width="3.75" shape="629.86,630.92,20.00 561.45,543.03,20.00"/>
  </edge>
  <edge id=":6_1" function="internal">
    <lane id=":6_1_0" index="0" disallow="pedestrian tram rail_urban rail rail_electric rail_fast ship" speed="22.22" length="111.50" width="3.75" shape="629.86,630.92,20.00 564.62,540.48,20.00"/>
    <lane id=":6_1_1" index="1" disallow="pedestrian tram rail_urban rail rail_electric rail_fast ship" speed="22.22" length="111.50" width="3.75" shape="632.90,628.72,20.00 567.66,538.30,20.00"/>
    <lane id=":6_1_2" index="2" disallow="pedestrian tram rail_urban rail rail_electric rail_fast ship" speed="22.22" length="111.50" width="3.75" shape="635.93,626.52,20.00 570.71,536.11,20.00"/>
  </edge>
  <edge id=":7_0" function="internal">
    <lane id=":7_0_0" index="0" disallow="pedestrian tram rail_urban rail rail_electric rail_fast ship" speed="16.67" length="52.47" width="3.75" shape="322.65,913.90,0.00 315.82,918.43,0.00 304.11,926.63,0.00 291.08,936.19,0.00 280.29,944.81"/>
  </edge>
  <edge id=":7_1" function="internal">
    <lane id=":7_1_0" index="0" disallow="pedestrian tram rail_urban rail rail_electric rail_fast ship" speed="22.22" length="52.02" width="3.75" shape="319.53,910.67 280.29,944.81"/>
    <lane id=":7_1_1" index="1" disallow="pedestrian tram rail_urban rail rail_electric rail_fast ship" speed="22.22" length="52.02" width="3.75" shape="317.07,907.84 277.83,941.98"/>
    <lane id=":7_1_2" index="2" disallow="pedestrian tram rail_urban rail rail_electric rail_fast ship" speed="22.22" length="52.02" width="3.75" shape="314.61,905.01 275.37,939.15"/>
  </edge>
  <edge id=":8_0" function="internal">
    <lane id=":8_0_0" index="0" disallow="pedestrian tram rail_urban rail rail_electric rail_fast ship" speed="15.97" length="68.22" width="3.75" shape="343.55,236.00,20.00 338.18,226.79,20.00 328.05,209.88,20.00 316.74,191.51,20.00 307.87,177.86,20.00"/>
  </edge>
  <edge id=":8_1" function="internal">
    <lane id=":8_1_0" index="0" disallow="pedestrian tram rail_urban rail rail_electric rail_fast ship" speed="22.22" length="67.90" width="3.75" shape="346.91,233.41,20.00 307.87,177.86,20.00"/>
    <lane id=":8_1_1" index="1" disallow="pedestrian tram rail_urban rail rail_electric rail_fast ship" speed="22.22" length="67.90" width="3.75" shape="349.98,231.26,20.00 310.93,175.71,20.00"/>
    <lane id=":8_1_2" index="2" disallow="pedestrian tram rail_urban rail rail_electric rail_fast ship" speed="22.22" length="67.90" width="3.75" shape="353.05,229.10,20.00 314.00,173.55,20.00"/>
  </edge>
  <edge id=":9_0" function="internal">
    <lane id=":9_0_0" index="0" disallow="pedestrian tram rail_urban rail rail_electric rail_fast ship" speed="9.72" length="17.16" width="3.75" shape="470.56,653.61,7.32 473.10,636.64,7.37"/>
  </edge>
  <edge id=":9_1" function="internal">
    <lane id=":9_1_0" index="0" disallow="pedestrian tram rail_urban rail rail_electric rail_fast ship" speed="9.72" length="18.48" width="3.75" shape="470.56,653.61,7.32 471.69,649.48,7.34 473.55,644.89,7.35 475.81,640.48,7.37 478.16,636.89,7.38"/>
  </edge>
  <edge id=":9.8_0" function="internal">
    <lane id=":9.8_0_0" index="0" disallow="pedestrian tram rail_urban rail rail_electric rail_fast ship" speed="22.22" length="0.30" width="3.75" shape="814.36,467.71 814.61,467.53"/>
    <lane id=":9.8_0_1" index="1" disallow="pedestrian tram rail_urban rail rail_electric rail_fast ship" speed="22.22" length="0.30" width="3.75" shape="816.57,470.74 816.81,470.56"/>
    <lane id=":9.8_0_2" index="2" disallow="pedestrian tram rail_urban rail rail_electric rail_fast ship" speed="22.22" length="0.30" width="3.75" shape="818.78,473.77 819.02,473.60"/>
  </edge>
  <edge id="-0" from="0.begin" to="0" priority="1" type="driving" shape="1298.66,202.87 1297.51,203.54 1296.34,204.21 1295.16,204.89 1293.96,205.57 1292.75,206.26 1291.52,206.96 1290.27,207.66 1289.01,208.37 1287.73,209.08 1286.44,209.81 1285.13,210.54 1283.81,211.27 1282.47,212.01 1281.12,212.76 1279.75,213.52 1278.37,214.28 1276.97,215.05 1275.56,215.82 1274.13,216.60 1272.69,217.39 1271.24,218.18 1269.77,218.98 1268.29,219.78 1266.79,220.59 1265.28,221.41 1263.75,222.23 1262.21,223.06 1260.66,223.90 1259.10,224.74 1257.52,225.59 1255.92,226.44 1254.32,227.30 1252.70,228.16 1251.07,229.03 1249.43,229.91 1247.77,230.79 1246.10,231.68 1244.42,232.58 1242.72,233.48 1241.02,234.38 1239.30,235.29 1237.57,236.21 1235.83,237.13 1234.07,238.06 1232.31,239.00 1230.53,239.94 1228.74,240.88 1226.94,241.83 1225.13,242.79 1223.30,243.75 1221.47,244.72 1219.62,245.69 1217.77,246.67 1215.90,247.65 1214.02,248.64 1212.14,249.63 1210.24,250.63 1208.33,251.64 1206.41,252.65 1204.48,253.66 1202.54,254.68 1200.59,255.71 1198.63,256.74 1196.66,257.78 1194.68,258.82 1192.69,259.87 1190.70,260.92 1188.69,261.97 1186.67,263.04 1184.65,264.10 1182.62,265.17 1180.57,266.25 1178.52,267.33 1176.46,268.42 1174.39,269.51 1172.31,270.61 1170.23,271.71 1168.13,272.81 1166.03,273.92 1163.92,275.04 1161.80,276.16 1159.68,277.28 1157.54,278.41 1155.40,279.55 1153.25,280.69 1151.10,281.83 1148.93,282.98 1146.76,284.13 1144.58,285.29 1142.40,286.45 1140.21,287.61 1138.01,288.79">
    <lane id="-0_0" index="0" disallow="pedestrian tram rail_urban rail rail_electric rail_fast ship" speed="22.22" length="178.37" width="3.75" shape="1303.34,210.99 1302.19,211.66 1301.01,212.34 1299.81,213.02 1298.60,213.72 1297.38,214.41 1296.13,215.12 1294.88,215.83 1293.60,216.54 1292.32,217.26 1291.01,217.99 1289.70,218.73 1288.36,219.47 1287.02,220.22 1285.65,220.97 1284.28,221.73 1282.89,222.49 1281.48,223.27 1280.06,224.04 1278.63,224.83 1277.18,225.62 1275.72,226.41 1274.24,227.22 1272.75,228.02 1271.25,228.84 1269.73,229.66 1268.20,230.48 1266.66,231.32 1265.10,232.15 1263.53,233.00 1261.95,233.85 1260.35,234.70 1258.74,235.57 1257.12,236.43 1255.48,237.31 1253.84,238.18 1252.18,239.07 1250.50,239.96 1248.82,240.85 1247.12,241.76 1245.41,242.66 1243.69,243.58 1241.96,244.49 1240.21,245.42 1238.46,246.35 1236.69,247.28 1234.91,248.22 1233.12,249.17 1231.32,250.12 1229.50,251.08 1227.68,252.04 1225.84,253.01 1224.00,253.98 1222.14,254.96 1220.27,255.95 1218.39,256.93 1216.50,257.93 1214.60,258.93 1212.69,259.93 1210.77,260.94 1208.84,261.96 1206.91,262.98 1204.96,264.01 1203.00,265.04 1201.03,266.07 1199.05,267.12 1197.06,268.16 1195.06,269.21 1193.06,270.27 1191.04,271.33 1189.02,272.40 1186.99,273.47 1184.94,274.54 1182.89,275.62 1180.83,276.71 1178.77,277.80 1176.69,278.90 1174.60,280.00 1172.51,281.10 1170.41,282.21 1168.30,283.33 1166.19,284.45 1164.06,285.57 1161.93,286.70 1159.79,287.83 1157.64,288.97 1155.49,290.11 1153.33,291.26 1151.16,292.41 1148.98,293.57 1146.80,294.73 1145.96,295.18" type="driving"/>
    <lane id="-0_1" index="1" disallow="pedestrian tram rail_urban rail rail_electric rail_fast ship" speed="22.22" length="178.37" width="3.75" shape="1301.47,207.75 1300.32,208.41 1299.14,209.09 1297.95,209.77 1296.75,210.46 1295.52,211.15 1294.29,211.85 1293.03,212.56 1291.77,213.27 1290.48,213.99 1289.19,214.72 1287.87,215.45 1286.54,216.19 1285.20,216.94 1283.84,217.69 1282.47,218.44 1281.08,219.21 1279.68,219.98 1278.26,220.75 1276.83,221.54 1275.39,222.33 1273.93,223.12 1272.45,223.92 1270.97,224.73 1269.47,225.54 1267.95,226.36 1266.42,227.18 1264.88,228.01 1263.33,228.85 1261.76,229.69 1260.18,230.54 1258.58,231.40 1256.97,232.26 1255.35,233.12 1253.72,234.00 1252.07,234.87 1250.41,235.76 1248.74,236.65 1247.06,237.54 1245.36,238.44 1243.65,239.35 1241.93,240.26 1240.20,241.18 1238.46,242.10 1236.70,243.03 1234.94,243.97 1233.16,244.91 1231.37,245.85 1229.56,246.81 1227.75,247.76 1225.93,248.72 1224.09,249.69 1222.25,250.67 1220.39,251.64 1218.52,252.63 1216.64,253.62 1214.76,254.61 1212.86,255.61 1210.95,256.62 1209.03,257.63 1207.10,258.64 1205.16,259.66 1203.21,260.69 1201.25,261.72 1199.28,262.76 1197.30,263.80 1195.31,264.84 1193.32,265.89 1191.31,266.95 1189.30,268.01 1187.27,269.08 1185.24,270.15 1183.19,271.23 1181.14,272.31 1179.08,273.39 1177.02,274.48 1174.94,275.58 1172.85,276.68 1170.76,277.79 1168.66,278.90 1166.55,280.01 1164.43,281.13 1162.31,282.25 1160.18,283.38 1158.04,284.52 1155.89,285.66 1153.73,286.80 1151.57,287.95 1149.40,289.10 1147.22,290.25 1145.04,291.41 1144.20,291.86" type="driving"/>
    <lane id="-0_2" index="2" disallow="pedestrian tram rail_urban rail rail_electric rail_fast ship" speed="22.22" length="178.37" width="3.75" shape="1299.59,204.50 1298.44,205.16 1297.28,205.83 1296.09,206.51 1294.89,207.20 1293.67,207.89 1292.44,208.59 1291.19,209.29 1289.93,210.00 1288.65,210.72 1287.36,211.44 1286.05,212.18 1284.72,212.91 1283.38,213.65 1282.03,214.40 1280.66,215.16 1279.27,215.92 1277.87,216.69 1276.46,217.47 1275.03,218.25 1273.59,219.03 1272.13,219.83 1270.66,220.63 1269.18,221.43 1267.68,222.24 1266.17,223.06 1264.64,223.88 1263.10,224.71 1261.55,225.55 1259.98,226.39 1258.40,227.24 1256.81,228.09 1255.20,228.95 1253.58,229.82 1251.95,230.69 1250.31,231.57 1248.65,232.45 1246.98,233.34 1245.30,234.23 1243.60,235.13 1241.90,236.04 1240.18,236.95 1238.45,237.87 1236.70,238.79 1234.95,239.72 1233.18,240.65 1231.40,241.59 1229.62,242.54 1227.81,243.49 1226.00,244.45 1224.18,245.41 1222.34,246.38 1220.50,247.35 1218.64,248.33 1216.78,249.31 1214.90,250.30 1213.01,251.29 1211.11,252.29 1209.20,253.30 1207.28,254.31 1205.35,255.32 1203.41,256.34 1201.46,257.37 1199.50,258.40 1197.53,259.44 1195.56,260.48 1193.57,261.52 1191.57,262.58 1189.56,263.63 1187.55,264.69 1185.52,265.76 1183.49,266.83 1181.45,267.91 1179.39,268.99 1177.33,270.08 1175.27,271.17 1173.19,272.26 1171.10,273.36 1169.01,274.47 1166.91,275.58 1164.80,276.70 1162.68,277.82 1160.55,278.94 1158.42,280.07 1156.28,281.20 1154.13,282.34 1151.98,283.49 1149.81,284.63 1147.64,285.79 1145.46,286.94 1143.28,288.10 1142.43,288.55" type="driving"/>
  </edge>